Quilting with   1 groups of   0 I/O tasks.
 Ntasks in X           10 , ntasks in Y           16
Domain # 1: dx =  3000.000 m
Domain # 2: dx =  1000.000 m
Domain # 3: dx =   500.000 m
WRF V4.2.1 MODEL
 *************************************
 Parent domain
 ids,ide,jds,jde            1         793           1         853
 ims,ime,jms,jme           -4          87          -4          61
 ips,ipe,jps,jpe            1          80           1          54
 *************************************
DYNAMICS OPTION: Eulerian Mass Coordinate
 alloc_space_field: domain            1 ,              229864900  bytes allocated
med_initialdata_input: calling input_input
 Domain            1  Setting history stream           24  for u
 Domain            1  Setting history stream           24  for v
 Domain            1  Setting history stream           24  for t
 Domain            1  Setting history stream           24  for qvapor
 Domain            1  Setting history stream           24  for xlat
 Domain            1  Setting history stream           24  for xlong
 Domain            1  Setting history stream           24  for lu_index
 Domain            1  Setting history stream           24  for hgt
 Input data is acceptable to use: wrfinput_d01
 CURRENT DATE          = 2016-08-29_09:00:00
 SIMULATION START DATE = 2016-08-29_00:00:00
Timing for processing wrfinput file (stream 0) for domain        1:   41.20389 elapsed seconds
Max map factor in domain 1 =  1.08. Scale the dt in the model accordingly.
 D01: Time step                              =    15.00000      (s)
 D01: Grid Distance                          =    3.000000      (km)
 D01: Grid Distance Ratio dt/dx              =    5.000000      (s/km)
 D01: Ratio Including Maximum Map Factor     =    5.392106      (s/km)
 D01: NML defined reasonable_time_step_ratio =    6.000000
INPUT LandUse = "MODIFIED_IGBP_MODIS_NOAH"
 LANDUSE TYPE = "MODIFIED_IGBP_MODIS_NOAH" FOUND          33  CATEGORIES           2  SEASONS WATER CATEGORY =           17  SNOW CATEGORY =           15
INITIALIZE THREE Noah LSM RELATED TABLES
Skipping over LUTYPE = USGS
 LANDUSE TYPE = MODIFIED_IGBP_MODIS_NOAH FOUND          20  CATEGORIES
 INPUT SOIL TEXTURE CLASSIFICATION = STAS
 SOIL TEXTURE CLASSIFICATION = STAS FOUND          19  CATEGORIES
ThompMP: read qr_acr_qgV2.dat instead of computing
ThompMP: read qr_acr_qsV2.dat instead of computing
ThompMP: read freezeH2O.dat instead of computing
 *************************************
 Nesting domain
 ids,ide,jds,jde            1         805           1         805
 ims,ime,jms,jme           -4          93          -4          63
 ips,ipe,jps,jpe            1          81           1          51
 INTERMEDIATE domain
 ids,ide,jds,jde          269         542         299         572
 ims,ime,jms,jme          264         307         294         327
 ips,ipe,jps,jpe          267         297         297         317
 *************************************
 alloc_space_field: domain            2 ,               20555040  bytes allocated
 alloc_space_field: domain            2 ,              249987536  bytes allocated
*** Initializing nest domain # 2 from an input file. ***
med_initialdata_input: calling input_input
 Domain            2  Setting history stream           24  for u
 Domain            2  Setting history stream           24  for v
 Domain            2  Setting history stream           24  for t
 Domain            2  Setting history stream           24  for qvapor
 Domain            2  Setting history stream           24  for xlat
 Domain            2  Setting history stream           24  for xlong
 Domain            2  Setting history stream           24  for lu_index
 Domain            2  Setting history stream           24  for hgt
 Input data is acceptable to use: wrfinput_d02
Timing for processing wrfinput file (stream 0) for domain        2:   36.38090 elapsed seconds
INPUT LandUse = "MODIFIED_IGBP_MODIS_NOAH"
 LANDUSE TYPE = "MODIFIED_IGBP_MODIS_NOAH" FOUND          33  CATEGORIES           2  SEASONS WATER CATEGORY =           17  SNOW CATEGORY =           15
INITIALIZE THREE Noah LSM RELATED TABLES
Skipping over LUTYPE = USGS
 LANDUSE TYPE = MODIFIED_IGBP_MODIS_NOAH FOUND          20  CATEGORIES
 INPUT SOIL TEXTURE CLASSIFICATION = STAS
 SOIL TEXTURE CLASSIFICATION = STAS FOUND          19  CATEGORIES
INPUT LandUse = "MODIFIED_IGBP_MODIS_NOAH"
 LANDUSE TYPE = "MODIFIED_IGBP_MODIS_NOAH" FOUND          33  CATEGORIES           2  SEASONS WATER CATEGORY =           17  SNOW CATEGORY =           15
INITIALIZE THREE Noah LSM RELATED TABLES
Skipping over LUTYPE = USGS
 LANDUSE TYPE = MODIFIED_IGBP_MODIS_NOAH FOUND          20  CATEGORIES
 INPUT SOIL TEXTURE CLASSIFICATION = STAS
 SOIL TEXTURE CLASSIFICATION = STAS FOUND          19  CATEGORIES
Max map factor in domain 1 =  1.08. Scale the dt in the model accordingly.
 D01: Time step                              =    15.00000      (s)
 D01: Grid Distance                          =    3.000000      (km)
 D01: Grid Distance Ratio dt/dx              =    5.000000      (s/km)
 D01: Ratio Including Maximum Map Factor     =    5.392106      (s/km)
 D01: NML defined reasonable_time_step_ratio =    6.000000
INPUT LandUse = "MODIFIED_IGBP_MODIS_NOAH"
 LANDUSE TYPE = "MODIFIED_IGBP_MODIS_NOAH" FOUND          33  CATEGORIES           2  SEASONS WATER CATEGORY =           17  SNOW CATEGORY =           15
INITIALIZE THREE Noah LSM RELATED TABLES
Skipping over LUTYPE = USGS
 LANDUSE TYPE = MODIFIED_IGBP_MODIS_NOAH FOUND          20  CATEGORIES
 INPUT SOIL TEXTURE CLASSIFICATION = STAS
 SOIL TEXTURE CLASSIFICATION = STAS FOUND          19  CATEGORIES
Timing for Writing ISC2021_WRF_VALIDATION_OUTPUT_01_2016-08-29_09:00:00 for domain        1:    2.23362 elapsed seconds
 Input data is acceptable to use: wrfbdy_d01
 THIS TIME 2016-08-29_00:00:00, NEXT TIME 2016-08-29_03:00:00
 Input data is acceptable to use: wrfbdy_d01
 THIS TIME 2016-08-29_03:00:00, NEXT TIME 2016-08-29_06:00:00
 Input data is acceptable to use: wrfbdy_d01
 THIS TIME 2016-08-29_06:00:00, NEXT TIME 2016-08-29_09:00:00
 Input data is acceptable to use: wrfbdy_d01
Timing for processing lateral boundary for domain        1:    1.02261 elapsed seconds
WRF NUMBER OF TILES FROM OMP_GET_MAX_THREADS =   2
 Tile Strategy is not specified. Assuming 1D-Y
WRF TILE   1 IS      1 IE     80 JS      1 JE     27
WRF TILE   2 IS      1 IE     80 JS     28 JE     54
WRF NUMBER OF TILES =   2
 *************************************
 Nesting domain
 ids,ide,jds,jde            1        1001           1        1001
 ims,ime,jms,jme           -4         110          -4          74
 ips,ipe,jps,jpe            1         100           1          63
 INTERMEDIATE domain
 ids,ide,jds,jde          149         654         149         654
 ims,ime,jms,jme          144         210         144         191
 ips,ipe,jps,jpe          147         200         147         181
 *************************************
 alloc_space_field: domain            3 ,               44187840  bytes allocated
 alloc_space_field: domain            3 ,              337182632  bytes allocated
*** Initializing nest domain # 3 from an input file. ***
med_initialdata_input: calling input_input
 Domain            3  Setting history stream           24  for u
 Domain            3  Setting history stream           24  for v
 Domain            3  Setting history stream           24  for t
 Domain            3  Setting history stream           24  for qvapor
 Domain            3  Setting history stream           24  for xlat
 Domain            3  Setting history stream           24  for xlong
 Domain            3  Setting history stream           24  for lu_index
 Domain            3  Setting history stream           24  for hgt
 Input data is acceptable to use: wrfinput_d03
Timing for processing wrfinput file (stream 0) for domain        3:   58.49144 elapsed seconds
INPUT LandUse = "MODIFIED_IGBP_MODIS_NOAH"
 LANDUSE TYPE = "MODIFIED_IGBP_MODIS_NOAH" FOUND          33  CATEGORIES           2  SEASONS WATER CATEGORY =           17  SNOW CATEGORY =           15
INITIALIZE THREE Noah LSM RELATED TABLES
Skipping over LUTYPE = USGS
 LANDUSE TYPE = MODIFIED_IGBP_MODIS_NOAH FOUND          20  CATEGORIES
 INPUT SOIL TEXTURE CLASSIFICATION = STAS
 SOIL TEXTURE CLASSIFICATION = STAS FOUND          19  CATEGORIES
INPUT LandUse = "MODIFIED_IGBP_MODIS_NOAH"
 LANDUSE TYPE = "MODIFIED_IGBP_MODIS_NOAH" FOUND          33  CATEGORIES           2  SEASONS WATER CATEGORY =           17  SNOW CATEGORY =           15
INITIALIZE THREE Noah LSM RELATED TABLES
Skipping over LUTYPE = USGS
 LANDUSE TYPE = MODIFIED_IGBP_MODIS_NOAH FOUND          20  CATEGORIES
 INPUT SOIL TEXTURE CLASSIFICATION = STAS
 SOIL TEXTURE CLASSIFICATION = STAS FOUND          19  CATEGORIES
INPUT LandUse = "MODIFIED_IGBP_MODIS_NOAH"
 LANDUSE TYPE = "MODIFIED_IGBP_MODIS_NOAH" FOUND          33  CATEGORIES           2  SEASONS WATER CATEGORY =           17  SNOW CATEGORY =           15
INITIALIZE THREE Noah LSM RELATED TABLES
Skipping over LUTYPE = USGS
 LANDUSE TYPE = MODIFIED_IGBP_MODIS_NOAH FOUND          20  CATEGORIES
 INPUT SOIL TEXTURE CLASSIFICATION = STAS
 SOIL TEXTURE CLASSIFICATION = STAS FOUND          19  CATEGORIES
Timing for Writing ISC2021_WRF_VALIDATION_OUTPUT_02_2016-08-29_09:00:00 for domain        2:    2.44993 elapsed seconds
WRF NUMBER OF TILES FROM OMP_GET_MAX_THREADS =   2
 Tile Strategy is not specified. Assuming 1D-Y
WRF TILE   1 IS      1 IE     81 JS      1 JE     26
WRF TILE   2 IS      1 IE     81 JS     27 JE     51
WRF NUMBER OF TILES =   2
Timing for Writing ISC2021_WRF_VALIDATION_OUTPUT_03_2016-08-29_09:00:00 for domain        3:    3.26700 elapsed seconds
WRF NUMBER OF TILES FROM OMP_GET_MAX_THREADS =   2
 Tile Strategy is not specified. Assuming 1D-Y
WRF TILE   1 IS      1 IE    100 JS      1 JE     32
WRF TILE   2 IS      1 IE    100 JS     33 JE     63
WRF NUMBER OF TILES =   2
Timing for main: time 2016-08-29_09:00:02 on domain   3:   11.31859 elapsed seconds
Timing for main: time 2016-08-29_09:00:05 on domain   3:    1.55278 elapsed seconds
Timing for main: time 2016-08-29_09:00:05 on domain   2:   83.29206 elapsed seconds
Timing for main: time 2016-08-29_09:00:07 on domain   3:    1.50297 elapsed seconds
Timing for main: time 2016-08-29_09:00:10 on domain   3:    1.54998 elapsed seconds
Timing for main: time 2016-08-29_09:00:10 on domain   2:    5.02063 elapsed seconds
Timing for main: time 2016-08-29_09:00:12 on domain   3:    1.49787 elapsed seconds
Timing for main: time 2016-08-29_09:00:15 on domain   3:    1.60950 elapsed seconds
Timing for main: time 2016-08-29_09:00:15 on domain   2:    5.07965 elapsed seconds
Timing for main: time 2016-08-29_09:00:15 on domain   1:  142.74956 elapsed seconds
Timing for main: time 2016-08-29_09:00:17 on domain   3:    1.51340 elapsed seconds
Timing for main: time 2016-08-29_09:00:20 on domain   3:    1.54631 elapsed seconds
Timing for main: time 2016-08-29_09:00:20 on domain   2:    4.98241 elapsed seconds
Timing for main: time 2016-08-29_09:00:22 on domain   3:    1.50391 elapsed seconds
Timing for main: time 2016-08-29_09:00:25 on domain   3:    1.54331 elapsed seconds
Timing for main: time 2016-08-29_09:00:25 on domain   2:    5.00291 elapsed seconds
Timing for main: time 2016-08-29_09:00:27 on domain   3:    1.49663 elapsed seconds
Timing for main: time 2016-08-29_09:00:30 on domain   3:    1.56376 elapsed seconds
Timing for main: time 2016-08-29_09:00:30 on domain   2:    5.00898 elapsed seconds
Timing for main: time 2016-08-29_09:00:30 on domain   1:   16.90152 elapsed seconds
Timing for main: time 2016-08-29_09:00:32 on domain   3:    1.51168 elapsed seconds
Timing for main: time 2016-08-29_09:00:35 on domain   3:    1.54951 elapsed seconds
Timing for main: time 2016-08-29_09:00:35 on domain   2:    4.97489 elapsed seconds
Timing for main: time 2016-08-29_09:00:37 on domain   3:    1.51117 elapsed seconds
Timing for main: time 2016-08-29_09:00:40 on domain   3:    1.52711 elapsed seconds
Timing for main: time 2016-08-29_09:00:40 on domain   2:    4.99333 elapsed seconds
Timing for main: time 2016-08-29_09:00:42 on domain   3:    1.50410 elapsed seconds
Timing for main: time 2016-08-29_09:00:45 on domain   3:    1.54612 elapsed seconds
Timing for main: time 2016-08-29_09:00:45 on domain   2:    5.04504 elapsed seconds
Timing for main: time 2016-08-29_09:00:45 on domain   1:   16.90429 elapsed seconds
Timing for main: time 2016-08-29_09:00:47 on domain   3:    1.50338 elapsed seconds
Timing for main: time 2016-08-29_09:00:50 on domain   3:    1.54794 elapsed seconds
Timing for main: time 2016-08-29_09:00:50 on domain   2:    4.96782 elapsed seconds
Timing for main: time 2016-08-29_09:00:52 on domain   3:    1.50520 elapsed seconds
Timing for main: time 2016-08-29_09:00:55 on domain   3:    1.54512 elapsed seconds
Timing for main: time 2016-08-29_09:00:55 on domain   2:    5.03029 elapsed seconds
Timing for main: time 2016-08-29_09:00:57 on domain   3:    1.49545 elapsed seconds
Timing for main: time 2016-08-29_09:01:00 on domain   3:    1.55157 elapsed seconds
Timing for main: time 2016-08-29_09:01:00 on domain   2:    5.03703 elapsed seconds
Timing for main: time 2016-08-29_09:01:00 on domain   1:   16.92888 elapsed seconds
Timing for Writing ISC2021_WRF_VALIDATION_OUTPUT_01_2016-08-29_09:01:00 for domain        1:    2.25221 elapsed seconds
Timing for Writing ISC2021_WRF_VALIDATION_OUTPUT_02_2016-08-29_09:01:00 for domain        2:    2.43441 elapsed seconds
Timing for Writing ISC2021_WRF_VALIDATION_OUTPUT_03_2016-08-29_09:01:00 for domain        3:    3.15055 elapsed seconds
Timing for main: time 2016-08-29_09:01:02 on domain   3:    4.64830 elapsed seconds
Timing for main: time 2016-08-29_09:01:05 on domain   3:    1.54443 elapsed seconds
Timing for main: time 2016-08-29_09:01:05 on domain   2:   10.52580 elapsed seconds
Timing for main: time 2016-08-29_09:01:07 on domain   3:    1.50091 elapsed seconds
Timing for main: time 2016-08-29_09:01:10 on domain   3:    1.54538 elapsed seconds
Timing for main: time 2016-08-29_09:01:10 on domain   2:    5.00875 elapsed seconds
Timing for main: time 2016-08-29_09:01:12 on domain   3:    1.49910 elapsed seconds
Timing for main: time 2016-08-29_09:01:15 on domain   3:    1.54561 elapsed seconds
Timing for main: time 2016-08-29_09:01:15 on domain   2:    4.99704 elapsed seconds
Timing for main: time 2016-08-29_09:01:15 on domain   1:   24.61283 elapsed seconds
Timing for main: time 2016-08-29_09:01:17 on domain   3:    1.50350 elapsed seconds
Timing for main: time 2016-08-29_09:01:20 on domain   3:    1.55464 elapsed seconds
Timing for main: time 2016-08-29_09:01:20 on domain   2:    4.97633 elapsed seconds
Timing for main: time 2016-08-29_09:01:22 on domain   3:    1.49494 elapsed seconds
Timing for main: time 2016-08-29_09:01:25 on domain   3:    1.54675 elapsed seconds
Timing for main: time 2016-08-29_09:01:25 on domain   2:    4.99221 elapsed seconds
Timing for main: time 2016-08-29_09:01:27 on domain   3:    1.51840 elapsed seconds
Timing for main: time 2016-08-29_09:01:30 on domain   3:    1.55931 elapsed seconds
Timing for main: time 2016-08-29_09:01:30 on domain   2:    5.03124 elapsed seconds
Timing for main: time 2016-08-29_09:01:30 on domain   1:   16.91328 elapsed seconds
Timing for main: time 2016-08-29_09:01:32 on domain   3:    1.49661 elapsed seconds
Timing for main: time 2016-08-29_09:01:35 on domain   3:    1.54721 elapsed seconds
Timing for main: time 2016-08-29_09:01:35 on domain   2:    4.95679 elapsed seconds
Timing for main: time 2016-08-29_09:01:37 on domain   3:    1.49223 elapsed seconds
Timing for main: time 2016-08-29_09:01:40 on domain   3:    1.54444 elapsed seconds
Timing for main: time 2016-08-29_09:01:40 on domain   2:    4.99904 elapsed seconds
Timing for main: time 2016-08-29_09:01:42 on domain   3:    1.53238 elapsed seconds
Timing for main: time 2016-08-29_09:01:45 on domain   3:    1.52987 elapsed seconds
Timing for main: time 2016-08-29_09:01:45 on domain   2:    5.02254 elapsed seconds
Timing for main: time 2016-08-29_09:01:45 on domain   1:   16.86265 elapsed seconds
Timing for main: time 2016-08-29_09:01:47 on domain   3:    1.49240 elapsed seconds
Timing for main: time 2016-08-29_09:01:50 on domain   3:    1.54711 elapsed seconds
Timing for main: time 2016-08-29_09:01:50 on domain   2:    4.97714 elapsed seconds
Timing for main: time 2016-08-29_09:01:52 on domain   3:    1.49227 elapsed seconds
Timing for main: time 2016-08-29_09:01:55 on domain   3:    1.63745 elapsed seconds
Timing for main: time 2016-08-29_09:01:55 on domain   2:    5.06421 elapsed seconds
Timing for main: time 2016-08-29_09:01:57 on domain   3:    1.49307 elapsed seconds
Timing for main: time 2016-08-29_09:02:00 on domain   3:    1.55031 elapsed seconds
Timing for main: time 2016-08-29_09:02:00 on domain   2:    5.02290 elapsed seconds
Timing for main: time 2016-08-29_09:02:00 on domain   1:   16.95029 elapsed seconds
Timing for Writing ISC2021_WRF_VALIDATION_OUTPUT_01_2016-08-29_09:02:00 for domain        1:    2.15757 elapsed seconds
Timing for Writing ISC2021_WRF_VALIDATION_OUTPUT_02_2016-08-29_09:02:00 for domain        2:    2.42471 elapsed seconds
Timing for Writing ISC2021_WRF_VALIDATION_OUTPUT_03_2016-08-29_09:02:00 for domain        3:    3.13934 elapsed seconds
Timing for main: time 2016-08-29_09:02:02 on domain   3:    4.63608 elapsed seconds
Timing for main: time 2016-08-29_09:02:05 on domain   3:    1.54527 elapsed seconds
Timing for main: time 2016-08-29_09:02:05 on domain   2:   10.49824 elapsed seconds
Timing for main: time 2016-08-29_09:02:07 on domain   3:    1.49895 elapsed seconds
Timing for main: time 2016-08-29_09:02:10 on domain   3:    1.54525 elapsed seconds
Timing for main: time 2016-08-29_09:02:10 on domain   2:    5.01213 elapsed seconds
Timing for main: time 2016-08-29_09:02:12 on domain   3:    1.50054 elapsed seconds
Timing for main: time 2016-08-29_09:02:15 on domain   3:    1.54842 elapsed seconds
Timing for main: time 2016-08-29_09:02:15 on domain   2:    5.00196 elapsed seconds
Timing for main: time 2016-08-29_09:02:15 on domain   1:   24.48485 elapsed seconds
Timing for main: time 2016-08-29_09:02:17 on domain   3:    1.49259 elapsed seconds
Timing for main: time 2016-08-29_09:02:20 on domain   3:    1.54716 elapsed seconds
Timing for main: time 2016-08-29_09:02:20 on domain   2:    4.96271 elapsed seconds
Timing for main: time 2016-08-29_09:02:22 on domain   3:    1.50214 elapsed seconds
Timing for main: time 2016-08-29_09:02:25 on domain   3:    1.54406 elapsed seconds
Timing for main: time 2016-08-29_09:02:25 on domain   2:    5.00330 elapsed seconds
Timing for main: time 2016-08-29_09:02:27 on domain   3:    1.50148 elapsed seconds
Timing for main: time 2016-08-29_09:02:30 on domain   3:    1.55502 elapsed seconds
Timing for main: time 2016-08-29_09:02:30 on domain   2:    5.00202 elapsed seconds
Timing for main: time 2016-08-29_09:02:30 on domain   1:   16.87413 elapsed seconds
Timing for main: time 2016-08-29_09:02:32 on domain   3:    1.52852 elapsed seconds
Timing for main: time 2016-08-29_09:02:35 on domain   3:    1.52190 elapsed seconds
Timing for main: time 2016-08-29_09:02:35 on domain   2:    4.95845 elapsed seconds
Timing for main: time 2016-08-29_09:02:37 on domain   3:    1.50284 elapsed seconds
Timing for main: time 2016-08-29_09:02:40 on domain   3:    1.52289 elapsed seconds
Timing for main: time 2016-08-29_09:02:40 on domain   2:    5.01191 elapsed seconds
Timing for main: time 2016-08-29_09:02:42 on domain   3:    1.47930 elapsed seconds
Timing for main: time 2016-08-29_09:02:45 on domain   3:    1.54415 elapsed seconds
Timing for main: time 2016-08-29_09:02:45 on domain   2:    5.01776 elapsed seconds
Timing for main: time 2016-08-29_09:02:45 on domain   1:   16.97829 elapsed seconds
Timing for main: time 2016-08-29_09:02:47 on domain   3:    1.49585 elapsed seconds
Timing for main: time 2016-08-29_09:02:50 on domain   3:    1.55850 elapsed seconds
Timing for main: time 2016-08-29_09:02:50 on domain   2:    4.96131 elapsed seconds
Timing for main: time 2016-08-29_09:02:52 on domain   3:    1.50315 elapsed seconds
Timing for main: time 2016-08-29_09:02:55 on domain   3:    1.55135 elapsed seconds
Timing for main: time 2016-08-29_09:02:55 on domain   2:    5.04279 elapsed seconds
Timing for main: time 2016-08-29_09:02:57 on domain   3:    1.50983 elapsed seconds
Timing for main: time 2016-08-29_09:03:00 on domain   3:    1.53447 elapsed seconds
Timing for main: time 2016-08-29_09:03:00 on domain   2:    5.01255 elapsed seconds
Timing for main: time 2016-08-29_09:03:00 on domain   1:   16.87434 elapsed seconds
Timing for Writing ISC2021_WRF_VALIDATION_OUTPUT_01_2016-08-29_09:03:00 for domain        1:    2.25264 elapsed seconds
Timing for Writing ISC2021_WRF_VALIDATION_OUTPUT_02_2016-08-29_09:03:00 for domain        2:    2.46808 elapsed seconds
Timing for Writing ISC2021_WRF_VALIDATION_OUTPUT_03_2016-08-29_09:03:00 for domain        3:    3.13142 elapsed seconds
Timing for main: time 2016-08-29_09:03:02 on domain   3:   11.16766 elapsed seconds
Timing for main: time 2016-08-29_09:03:05 on domain   3:    1.55053 elapsed seconds
Timing for main: time 2016-08-29_09:03:05 on domain   2:   21.43036 elapsed seconds
Timing for main: time 2016-08-29_09:03:07 on domain   3:    1.50016 elapsed seconds
Timing for main: time 2016-08-29_09:03:10 on domain   3:    1.58342 elapsed seconds
Timing for main: time 2016-08-29_09:03:10 on domain   2:    5.01110 elapsed seconds
Timing for main: time 2016-08-29_09:03:12 on domain   3:    1.55322 elapsed seconds
Timing for main: time 2016-08-29_09:03:15 on domain   3:    1.54804 elapsed seconds
Timing for main: time 2016-08-29_09:03:15 on domain   2:    5.06005 elapsed seconds
Timing for main: time 2016-08-29_09:03:15 on domain   1:   40.56116 elapsed seconds
Timing for main: time 2016-08-29_09:03:17 on domain   3:    1.55518 elapsed seconds
Timing for main: time 2016-08-29_09:03:20 on domain   3:    1.51280 elapsed seconds
Timing for main: time 2016-08-29_09:03:20 on domain   2:    4.98196 elapsed seconds
Timing for main: time 2016-08-29_09:03:22 on domain   3:    1.50489 elapsed seconds
Timing for main: time 2016-08-29_09:03:25 on domain   3:    1.54113 elapsed seconds
Timing for main: time 2016-08-29_09:03:25 on domain   2:    4.99919 elapsed seconds
Timing for main: time 2016-08-29_09:03:27 on domain   3:    1.53615 elapsed seconds
Timing for main: time 2016-08-29_09:03:30 on domain   3:    1.53887 elapsed seconds
Timing for main: time 2016-08-29_09:03:30 on domain   2:    5.02964 elapsed seconds
Timing for main: time 2016-08-29_09:03:30 on domain   1:   16.96309 elapsed seconds
Timing for main: time 2016-08-29_09:03:32 on domain   3:    1.50142 elapsed seconds
Timing for main: time 2016-08-29_09:03:35 on domain   3:    1.54566 elapsed seconds
Timing for main: time 2016-08-29_09:03:35 on domain   2:    4.96566 elapsed seconds
Timing for main: time 2016-08-29_09:03:37 on domain   3:    1.51837 elapsed seconds
Timing for main: time 2016-08-29_09:03:40 on domain   3:    1.52788 elapsed seconds
Timing for main: time 2016-08-29_09:03:40 on domain   2:    5.00327 elapsed seconds
Timing for main: time 2016-08-29_09:03:42 on domain   3:    1.49600 elapsed seconds
Timing for main: time 2016-08-29_09:03:45 on domain   3:    1.54770 elapsed seconds
Timing for main: time 2016-08-29_09:03:45 on domain   2:    5.00180 elapsed seconds
Timing for main: time 2016-08-29_09:03:45 on domain   1:   16.86078 elapsed seconds
Timing for main: time 2016-08-29_09:03:47 on domain   3:    1.51316 elapsed seconds
Timing for main: time 2016-08-29_09:03:50 on domain   3:    1.52882 elapsed seconds
Timing for main: time 2016-08-29_09:03:50 on domain   2:    4.95265 elapsed seconds
Timing for main: time 2016-08-29_09:03:52 on domain   3:    1.48978 elapsed seconds
Timing for main: time 2016-08-29_09:03:55 on domain   3:    1.57262 elapsed seconds
Timing for main: time 2016-08-29_09:03:55 on domain   2:    5.00640 elapsed seconds
Timing for main: time 2016-08-29_09:03:57 on domain   3:    1.49932 elapsed seconds
Timing for main: time 2016-08-29_09:04:00 on domain   3:    1.56618 elapsed seconds
Timing for main: time 2016-08-29_09:04:00 on domain   2:    5.01610 elapsed seconds
Timing for main: time 2016-08-29_09:04:00 on domain   1:   16.84438 elapsed seconds
Timing for Writing ISC2021_WRF_VALIDATION_OUTPUT_01_2016-08-29_09:04:00 for domain        1:    2.16093 elapsed seconds
Timing for Writing ISC2021_WRF_VALIDATION_OUTPUT_02_2016-08-29_09:04:00 for domain        2:    2.48117 elapsed seconds
Timing for Writing ISC2021_WRF_VALIDATION_OUTPUT_03_2016-08-29_09:04:00 for domain        3:    3.12013 elapsed seconds
Timing for main: time 2016-08-29_09:04:02 on domain   3:    4.61305 elapsed seconds
Timing for main: time 2016-08-29_09:04:05 on domain   3:    1.54194 elapsed seconds
Timing for main: time 2016-08-29_09:04:05 on domain   2:   10.58914 elapsed seconds
Timing for main: time 2016-08-29_09:04:07 on domain   3:    1.49847 elapsed seconds
Timing for main: time 2016-08-29_09:04:10 on domain   3:    1.55572 elapsed seconds
Timing for main: time 2016-08-29_09:04:10 on domain   2:    5.00714 elapsed seconds
Timing for main: time 2016-08-29_09:04:12 on domain   3:    1.49627 elapsed seconds
Timing for main: time 2016-08-29_09:04:15 on domain   3:    1.55974 elapsed seconds
Timing for main: time 2016-08-29_09:04:15 on domain   2:    4.99587 elapsed seconds
Timing for main: time 2016-08-29_09:04:15 on domain   1:   24.61259 elapsed seconds
Timing for main: time 2016-08-29_09:04:17 on domain   3:    1.50193 elapsed seconds
Timing for main: time 2016-08-29_09:04:20 on domain   3:    1.54701 elapsed seconds
Timing for main: time 2016-08-29_09:04:20 on domain   2:    4.97188 elapsed seconds
Timing for main: time 2016-08-29_09:04:22 on domain   3:    1.50099 elapsed seconds
Timing for main: time 2016-08-29_09:04:25 on domain   3:    1.54561 elapsed seconds
Timing for main: time 2016-08-29_09:04:25 on domain   2:    4.99948 elapsed seconds
Timing for main: time 2016-08-29_09:04:27 on domain   3:    1.49969 elapsed seconds
Timing for main: time 2016-08-29_09:04:30 on domain   3:    1.58724 elapsed seconds
Timing for main: time 2016-08-29_09:04:30 on domain   2:    5.07222 elapsed seconds
Timing for main: time 2016-08-29_09:04:30 on domain   1:   16.93647 elapsed seconds
Timing for main: time 2016-08-29_09:04:32 on domain   3:    1.51279 elapsed seconds
Timing for main: time 2016-08-29_09:04:35 on domain   3:    1.54137 elapsed seconds
Timing for main: time 2016-08-29_09:04:35 on domain   2:    4.97554 elapsed seconds
Timing for main: time 2016-08-29_09:04:37 on domain   3:    1.49531 elapsed seconds
Timing for main: time 2016-08-29_09:04:40 on domain   3:    1.55213 elapsed seconds
Timing for main: time 2016-08-29_09:04:40 on domain   2:    5.02572 elapsed seconds
Timing for main: time 2016-08-29_09:04:42 on domain   3:    1.49720 elapsed seconds
Timing for main: time 2016-08-29_09:04:45 on domain   3:    1.54651 elapsed seconds
Timing for main: time 2016-08-29_09:04:45 on domain   2:    5.04016 elapsed seconds
Timing for main: time 2016-08-29_09:04:45 on domain   1:   16.90895 elapsed seconds
Timing for main: time 2016-08-29_09:04:47 on domain   3:    1.49894 elapsed seconds
Timing for main: time 2016-08-29_09:04:50 on domain   3:    1.54794 elapsed seconds
Timing for main: time 2016-08-29_09:04:50 on domain   2:    4.96177 elapsed seconds
Timing for main: time 2016-08-29_09:04:52 on domain   3:    1.51243 elapsed seconds
Timing for main: time 2016-08-29_09:04:55 on domain   3:    1.57832 elapsed seconds
Timing for main: time 2016-08-29_09:04:55 on domain   2:    5.01954 elapsed seconds
Timing for main: time 2016-08-29_09:04:57 on domain   3:    1.50218 elapsed seconds
Timing for main: time 2016-08-29_09:05:00 on domain   3:    1.54793 elapsed seconds
Timing for main: time 2016-08-29_09:05:00 on domain   2:    5.08851 elapsed seconds
Timing for main: time 2016-08-29_09:05:00 on domain   1:   17.02253 elapsed seconds
Timing for Writing ISC2021_WRF_VALIDATION_OUTPUT_01_2016-08-29_09:05:00 for domain        1:    2.27940 elapsed seconds
Timing for Writing ISC2021_WRF_VALIDATION_OUTPUT_02_2016-08-29_09:05:00 for domain        2:    2.42905 elapsed seconds
Timing for Writing ISC2021_WRF_VALIDATION_OUTPUT_03_2016-08-29_09:05:00 for domain        3:    3.12462 elapsed seconds
Timing for main: time 2016-08-29_09:05:02 on domain   3:    4.61921 elapsed seconds
Timing for main: time 2016-08-29_09:05:05 on domain   3:    1.54432 elapsed seconds
Timing for main: time 2016-08-29_09:05:05 on domain   2:   10.49376 elapsed seconds
Timing for main: time 2016-08-29_09:05:07 on domain   3:    1.59189 elapsed seconds
Timing for main: time 2016-08-29_09:05:10 on domain   3:    1.59101 elapsed seconds
Timing for main: time 2016-08-29_09:05:10 on domain   2:    5.13814 elapsed seconds
Timing for main: time 2016-08-29_09:05:12 on domain   3:    1.52196 elapsed seconds
Timing for main: time 2016-08-29_09:05:15 on domain   3:    1.59595 elapsed seconds
Timing for main: time 2016-08-29_09:05:15 on domain   2:    5.22303 elapsed seconds
Timing for main: time 2016-08-29_09:05:15 on domain   1:   24.94756 elapsed seconds
Timing for main: time 2016-08-29_09:05:17 on domain   3:    1.49302 elapsed seconds
Timing for main: time 2016-08-29_09:05:20 on domain   3:    1.59493 elapsed seconds
Timing for main: time 2016-08-29_09:05:20 on domain   2:    5.03156 elapsed seconds
Timing for main: time 2016-08-29_09:05:22 on domain   3:    1.52276 elapsed seconds
Timing for main: time 2016-08-29_09:05:25 on domain   3:    1.51159 elapsed seconds
Timing for main: time 2016-08-29_09:05:25 on domain   2:    4.98541 elapsed seconds
Timing for main: time 2016-08-29_09:05:27 on domain   3:    1.49768 elapsed seconds
Timing for main: time 2016-08-29_09:05:30 on domain   3:    1.54241 elapsed seconds
Timing for main: time 2016-08-29_09:05:30 on domain   2:    4.99271 elapsed seconds
Timing for main: time 2016-08-29_09:05:30 on domain   1:   17.07603 elapsed seconds
Timing for main: time 2016-08-29_09:05:32 on domain   3:    1.49711 elapsed seconds
Timing for main: time 2016-08-29_09:05:35 on domain   3:    1.56588 elapsed seconds
Timing for main: time 2016-08-29_09:05:35 on domain   2:    4.95470 elapsed seconds
Timing for main: time 2016-08-29_09:05:37 on domain   3:    1.50563 elapsed seconds
Timing for main: time 2016-08-29_09:05:40 on domain   3:    1.54812 elapsed seconds
Timing for main: time 2016-08-29_09:05:40 on domain   2:    5.01272 elapsed seconds
Timing for main: time 2016-08-29_09:05:42 on domain   3:    1.49630 elapsed seconds
Timing for main: time 2016-08-29_09:05:45 on domain   3:    1.54530 elapsed seconds
Timing for main: time 2016-08-29_09:05:45 on domain   2:    5.02049 elapsed seconds
Timing for main: time 2016-08-29_09:05:45 on domain   1:   16.86660 elapsed seconds
Timing for main: time 2016-08-29_09:05:47 on domain   3:    1.49932 elapsed seconds
Timing for main: time 2016-08-29_09:05:50 on domain   3:    1.54934 elapsed seconds
Timing for main: time 2016-08-29_09:05:50 on domain   2:    4.96042 elapsed seconds
Timing for main: time 2016-08-29_09:05:52 on domain   3:    1.49851 elapsed seconds
Timing for main: time 2016-08-29_09:05:55 on domain   3:    1.54434 elapsed seconds
Timing for main: time 2016-08-29_09:05:55 on domain   2:    4.99084 elapsed seconds
Timing for main: time 2016-08-29_09:05:57 on domain   3:    1.50868 elapsed seconds
Timing for main: time 2016-08-29_09:06:00 on domain   3:    1.53758 elapsed seconds
Timing for main: time 2016-08-29_09:06:00 on domain   2:    5.00230 elapsed seconds
Timing for main: time 2016-08-29_09:06:00 on domain   1:   16.82584 elapsed seconds
Timing for main: time 2016-08-29_09:06:02 on domain   3:    8.02698 elapsed seconds
Timing for main: time 2016-08-29_09:06:05 on domain   3:    1.54240 elapsed seconds
Timing for main: time 2016-08-29_09:06:05 on domain   2:   15.82655 elapsed seconds
Timing for main: time 2016-08-29_09:06:07 on domain   3:    1.50158 elapsed seconds
Timing for main: time 2016-08-29_09:06:10 on domain   3:    1.53321 elapsed seconds
Timing for main: time 2016-08-29_09:06:10 on domain   2:    5.01601 elapsed seconds
Timing for main: time 2016-08-29_09:06:12 on domain   3:    1.49990 elapsed seconds
Timing for main: time 2016-08-29_09:06:15 on domain   3:    1.54210 elapsed seconds
Timing for main: time 2016-08-29_09:06:15 on domain   2:    4.99140 elapsed seconds
Timing for main: time 2016-08-29_09:06:15 on domain   1:   32.68566 elapsed seconds
Timing for main: time 2016-08-29_09:06:17 on domain   3:    1.50307 elapsed seconds
Timing for main: time 2016-08-29_09:06:20 on domain   3:    1.54670 elapsed seconds
Timing for main: time 2016-08-29_09:06:20 on domain   2:    4.96112 elapsed seconds
Timing for main: time 2016-08-29_09:06:22 on domain   3:    1.49967 elapsed seconds
Timing for main: time 2016-08-29_09:06:25 on domain   3:    1.54866 elapsed seconds
Timing for main: time 2016-08-29_09:06:25 on domain   2:    5.00561 elapsed seconds
Timing for main: time 2016-08-29_09:06:27 on domain   3:    1.49959 elapsed seconds
Timing for main: time 2016-08-29_09:06:30 on domain   3:    1.54188 elapsed seconds
Timing for main: time 2016-08-29_09:06:30 on domain   2:    4.99299 elapsed seconds
Timing for main: time 2016-08-29_09:06:30 on domain   1:   16.84371 elapsed seconds
Timing for main: time 2016-08-29_09:06:32 on domain   3:    1.49741 elapsed seconds
Timing for main: time 2016-08-29_09:06:35 on domain   3:    1.54454 elapsed seconds
Timing for main: time 2016-08-29_09:06:35 on domain   2:    4.95413 elapsed seconds
Timing for main: time 2016-08-29_09:06:37 on domain   3:    1.49709 elapsed seconds
Timing for main: time 2016-08-29_09:06:40 on domain   3:    1.54408 elapsed seconds
Timing for main: time 2016-08-29_09:06:40 on domain   2:    4.99568 elapsed seconds
Timing for main: time 2016-08-29_09:06:42 on domain   3:    1.50122 elapsed seconds
Timing for main: time 2016-08-29_09:06:45 on domain   3:    1.55098 elapsed seconds
Timing for main: time 2016-08-29_09:06:45 on domain   2:    5.01492 elapsed seconds
Timing for main: time 2016-08-29_09:06:45 on domain   1:   16.85581 elapsed seconds
Timing for main: time 2016-08-29_09:06:47 on domain   3:    1.49923 elapsed seconds
Timing for main: time 2016-08-29_09:06:50 on domain   3:    1.54417 elapsed seconds
Timing for main: time 2016-08-29_09:06:50 on domain   2:    4.95860 elapsed seconds
Timing for main: time 2016-08-29_09:06:52 on domain   3:    1.50294 elapsed seconds
Timing for main: time 2016-08-29_09:06:55 on domain   3:    1.54387 elapsed seconds
Timing for main: time 2016-08-29_09:06:55 on domain   2:    5.00554 elapsed seconds
Timing for main: time 2016-08-29_09:06:57 on domain   3:    1.49791 elapsed seconds
Timing for main: time 2016-08-29_09:07:00 on domain   3:    1.55631 elapsed seconds
Timing for main: time 2016-08-29_09:07:00 on domain   2:    5.00508 elapsed seconds
Timing for main: time 2016-08-29_09:07:00 on domain   1:   16.84199 elapsed seconds
Timing for main: time 2016-08-29_09:07:02 on domain   3:    1.50715 elapsed seconds
Timing for main: time 2016-08-29_09:07:05 on domain   3:    1.54349 elapsed seconds
Timing for main: time 2016-08-29_09:07:05 on domain   2:    4.97434 elapsed seconds
Timing for main: time 2016-08-29_09:07:07 on domain   3:    1.51245 elapsed seconds
Timing for main: time 2016-08-29_09:07:10 on domain   3:    1.54209 elapsed seconds
Timing for main: time 2016-08-29_09:07:10 on domain   2:    5.00448 elapsed seconds
Timing for main: time 2016-08-29_09:07:12 on domain   3:    1.49897 elapsed seconds
Timing for main: time 2016-08-29_09:07:15 on domain   3:    1.55815 elapsed seconds
Timing for main: time 2016-08-29_09:07:15 on domain   2:    5.01841 elapsed seconds
Timing for main: time 2016-08-29_09:07:15 on domain   1:   16.87701 elapsed seconds
Timing for main: time 2016-08-29_09:07:17 on domain   3:    1.49868 elapsed seconds
Timing for main: time 2016-08-29_09:07:20 on domain   3:    1.54210 elapsed seconds
Timing for main: time 2016-08-29_09:07:20 on domain   2:    4.96424 elapsed seconds
Timing for main: time 2016-08-29_09:07:22 on domain   3:    1.50137 elapsed seconds
Timing for main: time 2016-08-29_09:07:25 on domain   3:    1.54228 elapsed seconds
Timing for main: time 2016-08-29_09:07:25 on domain   2:    4.99376 elapsed seconds
Timing for main: time 2016-08-29_09:07:27 on domain   3:    1.50066 elapsed seconds
Timing for main: time 2016-08-29_09:07:30 on domain   3:    1.54640 elapsed seconds
Timing for main: time 2016-08-29_09:07:30 on domain   2:    5.00994 elapsed seconds
Timing for main: time 2016-08-29_09:07:30 on domain   1:   16.84173 elapsed seconds
Timing for main: time 2016-08-29_09:07:32 on domain   3:    1.51426 elapsed seconds
Timing for main: time 2016-08-29_09:07:35 on domain   3:    1.54689 elapsed seconds
Timing for main: time 2016-08-29_09:07:35 on domain   2:    4.97697 elapsed seconds
Timing for main: time 2016-08-29_09:07:37 on domain   3:    1.51355 elapsed seconds
Timing for main: time 2016-08-29_09:07:40 on domain   3:    1.54657 elapsed seconds
Timing for main: time 2016-08-29_09:07:40 on domain   2:    5.02986 elapsed seconds
Timing for main: time 2016-08-29_09:07:42 on domain   3:    1.49925 elapsed seconds
Timing for main: time 2016-08-29_09:07:45 on domain   3:    1.53314 elapsed seconds
Timing for main: time 2016-08-29_09:07:45 on domain   2:    4.99325 elapsed seconds
Timing for main: time 2016-08-29_09:07:45 on domain   1:   16.89310 elapsed seconds
Timing for main: time 2016-08-29_09:07:47 on domain   3:    1.50812 elapsed seconds
Timing for main: time 2016-08-29_09:07:50 on domain   3:    1.54492 elapsed seconds
Timing for main: time 2016-08-29_09:07:50 on domain   2:    4.96344 elapsed seconds
Timing for main: time 2016-08-29_09:07:52 on domain   3:    1.53149 elapsed seconds
Timing for main: time 2016-08-29_09:07:55 on domain   3:    1.52894 elapsed seconds
Timing for main: time 2016-08-29_09:07:55 on domain   2:    5.01613 elapsed seconds
Timing for main: time 2016-08-29_09:07:57 on domain   3:    1.50805 elapsed seconds
Timing for main: time 2016-08-29_09:08:00 on domain   3:    1.54085 elapsed seconds
Timing for main: time 2016-08-29_09:08:00 on domain   2:    5.01011 elapsed seconds
Timing for main: time 2016-08-29_09:08:00 on domain   1:   16.86890 elapsed seconds
Timing for main: time 2016-08-29_09:08:02 on domain   3:    1.50003 elapsed seconds
Timing for main: time 2016-08-29_09:08:05 on domain   3:    1.56692 elapsed seconds
Timing for main: time 2016-08-29_09:08:05 on domain   2:    5.03508 elapsed seconds
Timing for main: time 2016-08-29_09:08:07 on domain   3:    1.49905 elapsed seconds
Timing for main: time 2016-08-29_09:08:10 on domain   3:    1.55033 elapsed seconds
Timing for main: time 2016-08-29_09:08:10 on domain   2:    5.02261 elapsed seconds
Timing for main: time 2016-08-29_09:08:12 on domain   3:    1.50756 elapsed seconds
Timing for main: time 2016-08-29_09:08:15 on domain   3:    1.53914 elapsed seconds
Timing for main: time 2016-08-29_09:08:15 on domain   2:    5.00482 elapsed seconds
Timing for main: time 2016-08-29_09:08:15 on domain   1:   16.94576 elapsed seconds
Timing for main: time 2016-08-29_09:08:17 on domain   3:    1.50049 elapsed seconds
Timing for main: time 2016-08-29_09:08:20 on domain   3:    1.54749 elapsed seconds
Timing for main: time 2016-08-29_09:08:20 on domain   2:    4.96570 elapsed seconds
Timing for main: time 2016-08-29_09:08:22 on domain   3:    1.50108 elapsed seconds
Timing for main: time 2016-08-29_09:08:25 on domain   3:    1.54688 elapsed seconds
Timing for main: time 2016-08-29_09:08:25 on domain   2:    4.99494 elapsed seconds
Timing for main: time 2016-08-29_09:08:27 on domain   3:    1.52714 elapsed seconds
Timing for main: time 2016-08-29_09:08:30 on domain   3:    1.52108 elapsed seconds
Timing for main: time 2016-08-29_09:08:30 on domain   2:    5.00555 elapsed seconds
Timing for main: time 2016-08-29_09:08:30 on domain   1:   16.85378 elapsed seconds
Timing for main: time 2016-08-29_09:08:32 on domain   3:    1.51933 elapsed seconds
Timing for main: time 2016-08-29_09:08:35 on domain   3:    1.53728 elapsed seconds
Timing for main: time 2016-08-29_09:08:35 on domain   2:    4.97343 elapsed seconds
Timing for main: time 2016-08-29_09:08:37 on domain   3:    1.49094 elapsed seconds
Timing for main: time 2016-08-29_09:08:40 on domain   3:    1.54277 elapsed seconds
Timing for main: time 2016-08-29_09:08:40 on domain   2:    4.98771 elapsed seconds
Timing for main: time 2016-08-29_09:08:42 on domain   3:    1.51767 elapsed seconds
Timing for main: time 2016-08-29_09:08:45 on domain   3:    1.55418 elapsed seconds
Timing for main: time 2016-08-29_09:08:45 on domain   2:    5.02877 elapsed seconds
Timing for main: time 2016-08-29_09:08:45 on domain   1:   16.91525 elapsed seconds
Timing for main: time 2016-08-29_09:08:47 on domain   3:    1.49900 elapsed seconds
Timing for main: time 2016-08-29_09:08:50 on domain   3:    1.54164 elapsed seconds
Timing for main: time 2016-08-29_09:08:50 on domain   2:    4.96886 elapsed seconds
Timing for main: time 2016-08-29_09:08:52 on domain   3:    1.50000 elapsed seconds
Timing for main: time 2016-08-29_09:08:55 on domain   3:    1.54881 elapsed seconds
Timing for main: time 2016-08-29_09:08:55 on domain   2:    4.99747 elapsed seconds
Timing for main: time 2016-08-29_09:08:57 on domain   3:    1.52397 elapsed seconds
Timing for main: time 2016-08-29_09:09:00 on domain   3:    1.55066 elapsed seconds
Timing for main: time 2016-08-29_09:09:00 on domain   2:    5.03723 elapsed seconds
Timing for main: time 2016-08-29_09:09:00 on domain   1:   16.89247 elapsed seconds
Timing for main: time 2016-08-29_09:09:02 on domain   3:    8.04342 elapsed seconds
Timing for main: time 2016-08-29_09:09:05 on domain   3:    1.54759 elapsed seconds
Timing for main: time 2016-08-29_09:09:05 on domain   2:   15.85215 elapsed seconds
Timing for main: time 2016-08-29_09:09:07 on domain   3:    1.51884 elapsed seconds
Timing for main: time 2016-08-29_09:09:10 on domain   3:    1.52144 elapsed seconds
Timing for main: time 2016-08-29_09:09:10 on domain   2:    4.99350 elapsed seconds
Timing for main: time 2016-08-29_09:09:12 on domain   3:    1.50552 elapsed seconds
Timing for main: time 2016-08-29_09:09:15 on domain   3:    1.53452 elapsed seconds
Timing for main: time 2016-08-29_09:09:15 on domain   2:    5.02681 elapsed seconds
Timing for main: time 2016-08-29_09:09:15 on domain   1:   32.73392 elapsed seconds
Timing for main: time 2016-08-29_09:09:17 on domain   3:    1.50062 elapsed seconds
Timing for main: time 2016-08-29_09:09:20 on domain   3:    1.54132 elapsed seconds
Timing for main: time 2016-08-29_09:09:20 on domain   2:    4.96458 elapsed seconds
Timing for main: time 2016-08-29_09:09:22 on domain   3:    1.49855 elapsed seconds
Timing for main: time 2016-08-29_09:09:25 on domain   3:    1.54214 elapsed seconds
Timing for main: time 2016-08-29_09:09:25 on domain   2:    4.98316 elapsed seconds
Timing for main: time 2016-08-29_09:09:27 on domain   3:    1.49692 elapsed seconds
Timing for main: time 2016-08-29_09:09:30 on domain   3:    1.54402 elapsed seconds
Timing for main: time 2016-08-29_09:09:30 on domain   2:    5.03795 elapsed seconds
Timing for main: time 2016-08-29_09:09:30 on domain   1:   16.86352 elapsed seconds
Timing for main: time 2016-08-29_09:09:32 on domain   3:    1.55754 elapsed seconds
Timing for main: time 2016-08-29_09:09:35 on domain   3:    1.49032 elapsed seconds
Timing for main: time 2016-08-29_09:09:35 on domain   2:    4.94878 elapsed seconds
Timing for main: time 2016-08-29_09:09:37 on domain   3:    1.51894 elapsed seconds
Timing for main: time 2016-08-29_09:09:40 on domain   3:    1.55115 elapsed seconds
Timing for main: time 2016-08-29_09:09:40 on domain   2:    5.01296 elapsed seconds
Timing for main: time 2016-08-29_09:09:42 on domain   3:    1.49351 elapsed seconds
Timing for main: time 2016-08-29_09:09:45 on domain   3:    1.54159 elapsed seconds
Timing for main: time 2016-08-29_09:09:45 on domain   2:    4.99086 elapsed seconds
Timing for main: time 2016-08-29_09:09:45 on domain   1:   16.84156 elapsed seconds
Timing for main: time 2016-08-29_09:09:47 on domain   3:    1.50783 elapsed seconds
Timing for main: time 2016-08-29_09:09:50 on domain   3:    1.54832 elapsed seconds
Timing for main: time 2016-08-29_09:09:50 on domain   2:    4.96691 elapsed seconds
Timing for main: time 2016-08-29_09:09:52 on domain   3:    1.50126 elapsed seconds
Timing for main: time 2016-08-29_09:09:55 on domain   3:    1.54429 elapsed seconds
Timing for main: time 2016-08-29_09:09:55 on domain   2:    4.99022 elapsed seconds
Timing for main: time 2016-08-29_09:09:57 on domain   3:    1.50612 elapsed seconds
Timing for main: time 2016-08-29_09:10:00 on domain   3:    1.54551 elapsed seconds
Timing for main: time 2016-08-29_09:10:00 on domain   2:    5.00344 elapsed seconds
Timing for main: time 2016-08-29_09:10:00 on domain   1:   16.84114 elapsed seconds
Timing for main: time 2016-08-29_09:10:02 on domain   3:    1.51867 elapsed seconds
Timing for main: time 2016-08-29_09:10:05 on domain   3:    1.53716 elapsed seconds
Timing for main: time 2016-08-29_09:10:05 on domain   2:    4.97853 elapsed seconds
Timing for main: time 2016-08-29_09:10:07 on domain   3:    1.50239 elapsed seconds
Timing for main: time 2016-08-29_09:10:10 on domain   3:    1.54259 elapsed seconds
Timing for main: time 2016-08-29_09:10:10 on domain   2:    5.00580 elapsed seconds
Timing for main: time 2016-08-29_09:10:12 on domain   3:    1.49615 elapsed seconds
Timing for main: time 2016-08-29_09:10:15 on domain   3:    1.54721 elapsed seconds
Timing for main: time 2016-08-29_09:10:15 on domain   2:    4.99850 elapsed seconds
Timing for main: time 2016-08-29_09:10:15 on domain   1:   16.86622 elapsed seconds
Timing for main: time 2016-08-29_09:10:17 on domain   3:    1.50267 elapsed seconds
Timing for main: time 2016-08-29_09:10:20 on domain   3:    1.52952 elapsed seconds
Timing for main: time 2016-08-29_09:10:20 on domain   2:    4.94108 elapsed seconds
Timing for main: time 2016-08-29_09:10:22 on domain   3:    1.49692 elapsed seconds
Timing for main: time 2016-08-29_09:10:25 on domain   3:    1.54374 elapsed seconds
Timing for main: time 2016-08-29_09:10:25 on domain   2:    4.99136 elapsed seconds
Timing for main: time 2016-08-29_09:10:27 on domain   3:    1.51155 elapsed seconds
Timing for main: time 2016-08-29_09:10:30 on domain   3:    1.52971 elapsed seconds
Timing for main: time 2016-08-29_09:10:30 on domain   2:    4.99776 elapsed seconds
Timing for main: time 2016-08-29_09:10:30 on domain   1:   16.81460 elapsed seconds
Timing for main: time 2016-08-29_09:10:32 on domain   3:    1.50267 elapsed seconds
Timing for main: time 2016-08-29_09:10:35 on domain   3:    1.54817 elapsed seconds
Timing for main: time 2016-08-29_09:10:35 on domain   2:    4.97045 elapsed seconds
Timing for main: time 2016-08-29_09:10:37 on domain   3:    1.49876 elapsed seconds
Timing for main: time 2016-08-29_09:10:40 on domain   3:    1.57047 elapsed seconds
Timing for main: time 2016-08-29_09:10:40 on domain   2:    4.99491 elapsed seconds
Timing for main: time 2016-08-29_09:10:42 on domain   3:    1.49918 elapsed seconds
Timing for main: time 2016-08-29_09:10:45 on domain   3:    1.54275 elapsed seconds
Timing for main: time 2016-08-29_09:10:45 on domain   2:    4.99823 elapsed seconds
Timing for main: time 2016-08-29_09:10:45 on domain   1:   16.89191 elapsed seconds
Timing for main: time 2016-08-29_09:10:47 on domain   3:    1.59500 elapsed seconds
Timing for main: time 2016-08-29_09:10:50 on domain   3:    1.54678 elapsed seconds
Timing for main: time 2016-08-29_09:10:50 on domain   2:    5.04897 elapsed seconds
Timing for main: time 2016-08-29_09:10:52 on domain   3:    1.50458 elapsed seconds
Timing for main: time 2016-08-29_09:10:55 on domain   3:    1.54795 elapsed seconds
Timing for main: time 2016-08-29_09:10:55 on domain   2:    5.00286 elapsed seconds
Timing for main: time 2016-08-29_09:10:57 on domain   3:    1.51456 elapsed seconds
Timing for main: time 2016-08-29_09:11:00 on domain   3:    1.55291 elapsed seconds
Timing for main: time 2016-08-29_09:11:00 on domain   2:    5.10559 elapsed seconds
Timing for main: time 2016-08-29_09:11:00 on domain   1:   17.05797 elapsed seconds
Timing for main: time 2016-08-29_09:11:02 on domain   3:    1.49910 elapsed seconds
Timing for main: time 2016-08-29_09:11:05 on domain   3:    1.54304 elapsed seconds
Timing for main: time 2016-08-29_09:11:05 on domain   2:    4.95158 elapsed seconds
Timing for main: time 2016-08-29_09:11:07 on domain   3:    1.49334 elapsed seconds
Timing for main: time 2016-08-29_09:11:10 on domain   3:    1.55004 elapsed seconds
Timing for main: time 2016-08-29_09:11:10 on domain   2:    4.99836 elapsed seconds
Timing for main: time 2016-08-29_09:11:12 on domain   3:    1.53776 elapsed seconds
Timing for main: time 2016-08-29_09:11:15 on domain   3:    1.53035 elapsed seconds
Timing for main: time 2016-08-29_09:11:15 on domain   2:    5.01515 elapsed seconds
Timing for main: time 2016-08-29_09:11:15 on domain   1:   16.84229 elapsed seconds
Timing for main: time 2016-08-29_09:11:17 on domain   3:    1.49739 elapsed seconds
Timing for main: time 2016-08-29_09:11:20 on domain   3:    1.54481 elapsed seconds
Timing for main: time 2016-08-29_09:11:20 on domain   2:    4.95339 elapsed seconds
Timing for main: time 2016-08-29_09:11:22 on domain   3:    1.50178 elapsed seconds
Timing for main: time 2016-08-29_09:11:25 on domain   3:    1.56897 elapsed seconds
Timing for main: time 2016-08-29_09:11:25 on domain   2:    5.02106 elapsed seconds
Timing for main: time 2016-08-29_09:11:27 on domain   3:    1.49891 elapsed seconds
Timing for main: time 2016-08-29_09:11:30 on domain   3:    1.60743 elapsed seconds
Timing for main: time 2016-08-29_09:11:30 on domain   2:    5.04520 elapsed seconds
Timing for main: time 2016-08-29_09:11:30 on domain   1:   16.90012 elapsed seconds
Timing for main: time 2016-08-29_09:11:32 on domain   3:    1.49760 elapsed seconds
Timing for main: time 2016-08-29_09:11:35 on domain   3:    1.54403 elapsed seconds
Timing for main: time 2016-08-29_09:11:35 on domain   2:    4.95347 elapsed seconds
Timing for main: time 2016-08-29_09:11:37 on domain   3:    1.50204 elapsed seconds
Timing for main: time 2016-08-29_09:11:40 on domain   3:    1.54140 elapsed seconds
Timing for main: time 2016-08-29_09:11:40 on domain   2:    4.99469 elapsed seconds
Timing for main: time 2016-08-29_09:11:42 on domain   3:    1.50044 elapsed seconds
Timing for main: time 2016-08-29_09:11:45 on domain   3:    1.54854 elapsed seconds
Timing for main: time 2016-08-29_09:11:45 on domain   2:    5.00614 elapsed seconds
Timing for main: time 2016-08-29_09:11:45 on domain   1:   16.83138 elapsed seconds
Timing for main: time 2016-08-29_09:11:47 on domain   3:    1.50471 elapsed seconds
Timing for main: time 2016-08-29_09:11:50 on domain   3:    1.54221 elapsed seconds
Timing for main: time 2016-08-29_09:11:50 on domain   2:    4.95968 elapsed seconds
Timing for main: time 2016-08-29_09:11:52 on domain   3:    1.51417 elapsed seconds
Timing for main: time 2016-08-29_09:11:55 on domain   3:    1.54467 elapsed seconds
Timing for main: time 2016-08-29_09:11:55 on domain   2:    5.01133 elapsed seconds
Timing for main: time 2016-08-29_09:11:57 on domain   3:    1.50345 elapsed seconds
Timing for main: time 2016-08-29_09:12:00 on domain   3:    1.54328 elapsed seconds
Timing for main: time 2016-08-29_09:12:00 on domain   2:    5.00239 elapsed seconds
Timing for main: time 2016-08-29_09:12:00 on domain   1:   16.85540 elapsed seconds
Timing for main: time 2016-08-29_09:12:02 on domain   3:    8.06413 elapsed seconds
Timing for main: time 2016-08-29_09:12:05 on domain   3:    1.56708 elapsed seconds
Timing for main: time 2016-08-29_09:12:05 on domain   2:   15.89857 elapsed seconds
Timing for main: time 2016-08-29_09:12:07 on domain   3:    1.49998 elapsed seconds
Timing for main: time 2016-08-29_09:12:10 on domain   3:    1.54241 elapsed seconds
Timing for main: time 2016-08-29_09:12:10 on domain   2:    4.99698 elapsed seconds
Timing for main: time 2016-08-29_09:12:12 on domain   3:    1.50369 elapsed seconds
Timing for main: time 2016-08-29_09:12:15 on domain   3:    1.55227 elapsed seconds
Timing for main: time 2016-08-29_09:12:15 on domain   2:    5.00874 elapsed seconds
Timing for main: time 2016-08-29_09:12:15 on domain   1:   32.80572 elapsed seconds
Timing for main: time 2016-08-29_09:12:17 on domain   3:    1.49611 elapsed seconds
Timing for main: time 2016-08-29_09:12:20 on domain   3:    1.53729 elapsed seconds
Timing for main: time 2016-08-29_09:12:20 on domain   2:    4.94680 elapsed seconds
Timing for main: time 2016-08-29_09:12:22 on domain   3:    1.50703 elapsed seconds
Timing for main: time 2016-08-29_09:12:25 on domain   3:    1.54590 elapsed seconds
Timing for main: time 2016-08-29_09:12:25 on domain   2:    4.99528 elapsed seconds
Timing for main: time 2016-08-29_09:12:27 on domain   3:    1.55731 elapsed seconds
Timing for main: time 2016-08-29_09:12:30 on domain   3:    1.59017 elapsed seconds
Timing for main: time 2016-08-29_09:12:30 on domain   2:    5.08245 elapsed seconds
Timing for main: time 2016-08-29_09:12:30 on domain   1:   16.91245 elapsed seconds
Timing for main: time 2016-08-29_09:12:32 on domain   3:    1.65934 elapsed seconds
Timing for main: time 2016-08-29_09:12:35 on domain   3:    1.57352 elapsed seconds
Timing for main: time 2016-08-29_09:12:35 on domain   2:    5.17444 elapsed seconds
Timing for main: time 2016-08-29_09:12:37 on domain   3:    1.50310 elapsed seconds
Timing for main: time 2016-08-29_09:12:40 on domain   3:    1.58853 elapsed seconds
Timing for main: time 2016-08-29_09:12:40 on domain   2:    5.02934 elapsed seconds
Timing for main: time 2016-08-29_09:12:42 on domain   3:    1.50744 elapsed seconds
Timing for main: time 2016-08-29_09:12:45 on domain   3:    1.53858 elapsed seconds
Timing for main: time 2016-08-29_09:12:45 on domain   2:    5.00488 elapsed seconds
Timing for main: time 2016-08-29_09:12:45 on domain   1:   17.09603 elapsed seconds
Timing for main: time 2016-08-29_09:12:47 on domain   3:    1.50397 elapsed seconds
Timing for main: time 2016-08-29_09:12:50 on domain   3:    1.54197 elapsed seconds
Timing for main: time 2016-08-29_09:12:50 on domain   2:    4.95952 elapsed seconds
Timing for main: time 2016-08-29_09:12:52 on domain   3:    1.51595 elapsed seconds
Timing for main: time 2016-08-29_09:12:55 on domain   3:    1.52100 elapsed seconds
Timing for main: time 2016-08-29_09:12:55 on domain   2:    4.98118 elapsed seconds
Timing for main: time 2016-08-29_09:12:57 on domain   3:    1.50881 elapsed seconds
Timing for main: time 2016-08-29_09:13:00 on domain   3:    1.55866 elapsed seconds
Timing for main: time 2016-08-29_09:13:00 on domain   2:    5.10161 elapsed seconds
Timing for main: time 2016-08-29_09:13:00 on domain   1:   16.92139 elapsed seconds
Timing for main: time 2016-08-29_09:13:02 on domain   3:    1.50143 elapsed seconds
Timing for main: time 2016-08-29_09:13:05 on domain   3:    1.54356 elapsed seconds
Timing for main: time 2016-08-29_09:13:05 on domain   2:    4.95990 elapsed seconds
Timing for main: time 2016-08-29_09:13:07 on domain   3:    1.49985 elapsed seconds
Timing for main: time 2016-08-29_09:13:10 on domain   3:    1.54445 elapsed seconds
Timing for main: time 2016-08-29_09:13:10 on domain   2:    4.99860 elapsed seconds
Timing for main: time 2016-08-29_09:13:12 on domain   3:    1.50235 elapsed seconds
Timing for main: time 2016-08-29_09:13:15 on domain   3:    1.54659 elapsed seconds
Timing for main: time 2016-08-29_09:13:15 on domain   2:    4.98592 elapsed seconds
Timing for main: time 2016-08-29_09:13:15 on domain   1:   16.83534 elapsed seconds
Timing for main: time 2016-08-29_09:13:17 on domain   3:    1.51031 elapsed seconds
Timing for main: time 2016-08-29_09:13:20 on domain   3:    1.54332 elapsed seconds
Timing for main: time 2016-08-29_09:13:20 on domain   2:    4.94970 elapsed seconds
Timing for main: time 2016-08-29_09:13:22 on domain   3:    1.51045 elapsed seconds
Timing for main: time 2016-08-29_09:13:25 on domain   3:    1.55543 elapsed seconds
Timing for main: time 2016-08-29_09:13:25 on domain   2:    5.01166 elapsed seconds
Timing for main: time 2016-08-29_09:13:27 on domain   3:    1.50169 elapsed seconds
Timing for main: time 2016-08-29_09:13:30 on domain   3:    1.54672 elapsed seconds
Timing for main: time 2016-08-29_09:13:30 on domain   2:    5.00651 elapsed seconds
Timing for main: time 2016-08-29_09:13:30 on domain   1:   16.84233 elapsed seconds
Timing for main: time 2016-08-29_09:13:32 on domain   3:    1.51297 elapsed seconds
Timing for main: time 2016-08-29_09:13:35 on domain   3:    1.54097 elapsed seconds
Timing for main: time 2016-08-29_09:13:35 on domain   2:    4.95402 elapsed seconds
Timing for main: time 2016-08-29_09:13:37 on domain   3:    1.52930 elapsed seconds
Timing for main: time 2016-08-29_09:13:40 on domain   3:    1.52226 elapsed seconds
Timing for main: time 2016-08-29_09:13:40 on domain   2:    5.00224 elapsed seconds
Timing for main: time 2016-08-29_09:13:42 on domain   3:    1.50945 elapsed seconds
Timing for main: time 2016-08-29_09:13:45 on domain   3:    1.54398 elapsed seconds
Timing for main: time 2016-08-29_09:13:45 on domain   2:    5.00890 elapsed seconds
Timing for main: time 2016-08-29_09:13:45 on domain   1:   16.83630 elapsed seconds
Timing for main: time 2016-08-29_09:13:47 on domain   3:    1.50406 elapsed seconds
Timing for main: time 2016-08-29_09:13:50 on domain   3:    1.56170 elapsed seconds
Timing for main: time 2016-08-29_09:13:50 on domain   2:    4.97338 elapsed seconds
Timing for main: time 2016-08-29_09:13:52 on domain   3:    1.50239 elapsed seconds
Timing for main: time 2016-08-29_09:13:55 on domain   3:    1.53932 elapsed seconds
Timing for main: time 2016-08-29_09:13:55 on domain   2:    4.99607 elapsed seconds
Timing for main: time 2016-08-29_09:13:57 on domain   3:    1.50008 elapsed seconds
Timing for main: time 2016-08-29_09:14:00 on domain   3:    1.54730 elapsed seconds
Timing for main: time 2016-08-29_09:14:00 on domain   2:    4.99935 elapsed seconds
Timing for main: time 2016-08-29_09:14:00 on domain   1:   16.88043 elapsed seconds
Timing for main: time 2016-08-29_09:14:02 on domain   3:    1.49651 elapsed seconds
Timing for main: time 2016-08-29_09:14:05 on domain   3:    1.54312 elapsed seconds
Timing for main: time 2016-08-29_09:14:05 on domain   2:    4.94503 elapsed seconds
Timing for main: time 2016-08-29_09:14:07 on domain   3:    1.49724 elapsed seconds
Timing for main: time 2016-08-29_09:14:10 on domain   3:    1.54513 elapsed seconds
Timing for main: time 2016-08-29_09:14:10 on domain   2:    4.98818 elapsed seconds
Timing for main: time 2016-08-29_09:14:12 on domain   3:    1.50447 elapsed seconds
Timing for main: time 2016-08-29_09:14:15 on domain   3:    1.54135 elapsed seconds
Timing for main: time 2016-08-29_09:14:15 on domain   2:    4.98983 elapsed seconds
Timing for main: time 2016-08-29_09:14:15 on domain   1:   16.80559 elapsed seconds
Timing for main: time 2016-08-29_09:14:17 on domain   3:    1.51269 elapsed seconds
Timing for main: time 2016-08-29_09:14:20 on domain   3:    1.51860 elapsed seconds
Timing for main: time 2016-08-29_09:14:20 on domain   2:    4.95893 elapsed seconds
Timing for main: time 2016-08-29_09:14:22 on domain   3:    1.50292 elapsed seconds
Timing for main: time 2016-08-29_09:14:25 on domain   3:    1.54472 elapsed seconds
Timing for main: time 2016-08-29_09:14:25 on domain   2:    5.00192 elapsed seconds
Timing for main: time 2016-08-29_09:14:27 on domain   3:    1.50540 elapsed seconds
Timing for main: time 2016-08-29_09:14:30 on domain   3:    1.54758 elapsed seconds
Timing for main: time 2016-08-29_09:14:30 on domain   2:    5.00131 elapsed seconds
Timing for main: time 2016-08-29_09:14:30 on domain   1:   16.85282 elapsed seconds
Timing for main: time 2016-08-29_09:14:32 on domain   3:    1.50320 elapsed seconds
Timing for main: time 2016-08-29_09:14:35 on domain   3:    1.55141 elapsed seconds
Timing for main: time 2016-08-29_09:14:35 on domain   2:    4.96516 elapsed seconds
Timing for main: time 2016-08-29_09:14:37 on domain   3:    1.50053 elapsed seconds
Timing for main: time 2016-08-29_09:14:40 on domain   3:    1.53956 elapsed seconds
Timing for main: time 2016-08-29_09:14:40 on domain   2:    5.01240 elapsed seconds
Timing for main: time 2016-08-29_09:14:42 on domain   3:    1.50550 elapsed seconds
Timing for main: time 2016-08-29_09:14:45 on domain   3:    1.62940 elapsed seconds
Timing for main: time 2016-08-29_09:14:45 on domain   2:    5.08230 elapsed seconds
Timing for main: time 2016-08-29_09:14:45 on domain   1:   16.93232 elapsed seconds
Timing for main: time 2016-08-29_09:14:47 on domain   3:    1.50119 elapsed seconds
Timing for main: time 2016-08-29_09:14:50 on domain   3:    1.54281 elapsed seconds
Timing for main: time 2016-08-29_09:14:50 on domain   2:    4.95617 elapsed seconds
Timing for main: time 2016-08-29_09:14:52 on domain   3:    1.49890 elapsed seconds
Timing for main: time 2016-08-29_09:14:55 on domain   3:    1.54676 elapsed seconds
Timing for main: time 2016-08-29_09:14:55 on domain   2:    4.99865 elapsed seconds
Timing for main: time 2016-08-29_09:14:57 on domain   3:    1.50214 elapsed seconds
Timing for main: time 2016-08-29_09:15:00 on domain   3:    1.54972 elapsed seconds
Timing for main: time 2016-08-29_09:15:00 on domain   2:    5.00213 elapsed seconds
Timing for main: time 2016-08-29_09:15:00 on domain   1:   16.85377 elapsed seconds
Timing for main: time 2016-08-29_09:15:02 on domain   3:    8.04905 elapsed seconds
Timing for main: time 2016-08-29_09:15:05 on domain   3:    1.53762 elapsed seconds
Timing for main: time 2016-08-29_09:15:05 on domain   2:   15.84639 elapsed seconds
Timing for main: time 2016-08-29_09:15:07 on domain   3:    1.50168 elapsed seconds
Timing for main: time 2016-08-29_09:15:10 on domain   3:    1.53928 elapsed seconds
Timing for main: time 2016-08-29_09:15:10 on domain   2:    4.98833 elapsed seconds
Timing for main: time 2016-08-29_09:15:12 on domain   3:    1.50428 elapsed seconds
Timing for main: time 2016-08-29_09:15:15 on domain   3:    1.54863 elapsed seconds
Timing for main: time 2016-08-29_09:15:15 on domain   2:    5.00259 elapsed seconds
Timing for main: time 2016-08-29_09:15:15 on domain   1:   32.74412 elapsed seconds
Timing for main: time 2016-08-29_09:15:17 on domain   3:    1.50052 elapsed seconds
Timing for main: time 2016-08-29_09:15:20 on domain   3:    1.53876 elapsed seconds
Timing for main: time 2016-08-29_09:15:20 on domain   2:    4.95680 elapsed seconds
Timing for main: time 2016-08-29_09:15:22 on domain   3:    1.53090 elapsed seconds
Timing for main: time 2016-08-29_09:15:25 on domain   3:    1.54192 elapsed seconds
Timing for main: time 2016-08-29_09:15:25 on domain   2:    5.01262 elapsed seconds
Timing for main: time 2016-08-29_09:15:27 on domain   3:    1.49997 elapsed seconds
Timing for main: time 2016-08-29_09:15:30 on domain   3:    1.54487 elapsed seconds
Timing for main: time 2016-08-29_09:15:30 on domain   2:    5.00020 elapsed seconds
Timing for main: time 2016-08-29_09:15:30 on domain   1:   16.84685 elapsed seconds
Timing for main: time 2016-08-29_09:15:32 on domain   3:    1.50522 elapsed seconds
Timing for main: time 2016-08-29_09:15:35 on domain   3:    1.53869 elapsed seconds
Timing for main: time 2016-08-29_09:15:35 on domain   2:    4.96270 elapsed seconds
Timing for main: time 2016-08-29_09:15:37 on domain   3:    1.50553 elapsed seconds
Timing for main: time 2016-08-29_09:15:40 on domain   3:    1.53721 elapsed seconds
Timing for main: time 2016-08-29_09:15:40 on domain   2:    4.99080 elapsed seconds
Timing for main: time 2016-08-29_09:15:42 on domain   3:    1.50363 elapsed seconds
Timing for main: time 2016-08-29_09:15:45 on domain   3:    1.53988 elapsed seconds
Timing for main: time 2016-08-29_09:15:45 on domain   2:    4.99415 elapsed seconds
Timing for main: time 2016-08-29_09:15:45 on domain   1:   16.83732 elapsed seconds
Timing for main: time 2016-08-29_09:15:47 on domain   3:    1.49947 elapsed seconds
Timing for main: time 2016-08-29_09:15:50 on domain   3:    1.57341 elapsed seconds
Timing for main: time 2016-08-29_09:15:50 on domain   2:    4.98026 elapsed seconds
Timing for main: time 2016-08-29_09:15:52 on domain   3:    1.50665 elapsed seconds
Timing for main: time 2016-08-29_09:15:55 on domain   3:    1.54251 elapsed seconds
Timing for main: time 2016-08-29_09:15:55 on domain   2:    5.02712 elapsed seconds
Timing for main: time 2016-08-29_09:15:57 on domain   3:    1.49831 elapsed seconds
Timing for main: time 2016-08-29_09:16:00 on domain   3:    1.55195 elapsed seconds
Timing for main: time 2016-08-29_09:16:00 on domain   2:    4.99879 elapsed seconds
Timing for main: time 2016-08-29_09:16:00 on domain   1:   16.90162 elapsed seconds
Timing for main: time 2016-08-29_09:16:02 on domain   3:    1.49999 elapsed seconds
Timing for main: time 2016-08-29_09:16:05 on domain   3:    1.56774 elapsed seconds
Timing for main: time 2016-08-29_09:16:05 on domain   2:    4.97567 elapsed seconds
Timing for main: time 2016-08-29_09:16:07 on domain   3:    1.50368 elapsed seconds
Timing for main: time 2016-08-29_09:16:10 on domain   3:    1.54199 elapsed seconds
Timing for main: time 2016-08-29_09:16:10 on domain   2:    4.98642 elapsed seconds
Timing for main: time 2016-08-29_09:16:12 on domain   3:    1.53073 elapsed seconds
Timing for main: time 2016-08-29_09:16:15 on domain   3:    1.51757 elapsed seconds
Timing for main: time 2016-08-29_09:16:15 on domain   2:    5.00268 elapsed seconds
Timing for main: time 2016-08-29_09:16:15 on domain   1:   16.83886 elapsed seconds
Timing for main: time 2016-08-29_09:16:17 on domain   3:    1.52123 elapsed seconds
Timing for main: time 2016-08-29_09:16:20 on domain   3:    1.53475 elapsed seconds
Timing for main: time 2016-08-29_09:16:20 on domain   2:    4.97488 elapsed seconds
Timing for main: time 2016-08-29_09:16:22 on domain   3:    1.50446 elapsed seconds
Timing for main: time 2016-08-29_09:16:25 on domain   3:    1.55088 elapsed seconds
Timing for main: time 2016-08-29_09:16:25 on domain   2:    5.00902 elapsed seconds
Timing for main: time 2016-08-29_09:16:27 on domain   3:    1.49461 elapsed seconds
Timing for main: time 2016-08-29_09:16:30 on domain   3:    1.54436 elapsed seconds
Timing for main: time 2016-08-29_09:16:30 on domain   2:    5.00019 elapsed seconds
Timing for main: time 2016-08-29_09:16:30 on domain   1:   16.91859 elapsed seconds
Timing for main: time 2016-08-29_09:16:32 on domain   3:    1.50314 elapsed seconds
Timing for main: time 2016-08-29_09:16:35 on domain   3:    1.55201 elapsed seconds
Timing for main: time 2016-08-29_09:16:35 on domain   2:    4.96634 elapsed seconds
Timing for main: time 2016-08-29_09:16:37 on domain   3:    1.50773 elapsed seconds
Timing for main: time 2016-08-29_09:16:40 on domain   3:    1.55702 elapsed seconds
Timing for main: time 2016-08-29_09:16:40 on domain   2:    4.98985 elapsed seconds
Timing for main: time 2016-08-29_09:16:42 on domain   3:    1.53125 elapsed seconds
Timing for main: time 2016-08-29_09:16:45 on domain   3:    1.55784 elapsed seconds
Timing for main: time 2016-08-29_09:16:45 on domain   2:    5.03756 elapsed seconds
Timing for main: time 2016-08-29_09:16:45 on domain   1:   16.87324 elapsed seconds
Timing for main: time 2016-08-29_09:16:47 on domain   3:    1.50745 elapsed seconds
Timing for main: time 2016-08-29_09:16:50 on domain   3:    1.53586 elapsed seconds
Timing for main: time 2016-08-29_09:16:50 on domain   2:    4.95297 elapsed seconds
Timing for main: time 2016-08-29_09:16:52 on domain   3:    1.50668 elapsed seconds
Timing for main: time 2016-08-29_09:16:55 on domain   3:    1.57712 elapsed seconds
Timing for main: time 2016-08-29_09:16:55 on domain   2:    5.03817 elapsed seconds
Timing for main: time 2016-08-29_09:16:57 on domain   3:    1.51556 elapsed seconds
Timing for main: time 2016-08-29_09:17:00 on domain   3:    1.53695 elapsed seconds
Timing for main: time 2016-08-29_09:17:00 on domain   2:    5.01656 elapsed seconds
Timing for main: time 2016-08-29_09:17:00 on domain   1:   16.88521 elapsed seconds
Timing for main: time 2016-08-29_09:17:02 on domain   3:    1.50248 elapsed seconds
Timing for main: time 2016-08-29_09:17:05 on domain   3:    1.54420 elapsed seconds
Timing for main: time 2016-08-29_09:17:05 on domain   2:    4.96335 elapsed seconds
Timing for main: time 2016-08-29_09:17:07 on domain   3:    1.50127 elapsed seconds
Timing for main: time 2016-08-29_09:17:10 on domain   3:    1.56430 elapsed seconds
Timing for main: time 2016-08-29_09:17:10 on domain   2:    5.02503 elapsed seconds
Timing for main: time 2016-08-29_09:17:12 on domain   3:    1.51285 elapsed seconds
Timing for main: time 2016-08-29_09:17:15 on domain   3:    1.53786 elapsed seconds
Timing for main: time 2016-08-29_09:17:15 on domain   2:    5.00191 elapsed seconds
Timing for main: time 2016-08-29_09:17:15 on domain   1:   16.85973 elapsed seconds
Timing for main: time 2016-08-29_09:17:17 on domain   3:    1.50879 elapsed seconds
Timing for main: time 2016-08-29_09:17:20 on domain   3:    1.53999 elapsed seconds
Timing for main: time 2016-08-29_09:17:20 on domain   2:    4.94996 elapsed seconds
Timing for main: time 2016-08-29_09:17:22 on domain   3:    1.50221 elapsed seconds
Timing for main: time 2016-08-29_09:17:25 on domain   3:    1.54638 elapsed seconds
Timing for main: time 2016-08-29_09:17:25 on domain   2:    4.99941 elapsed seconds
Timing for main: time 2016-08-29_09:17:27 on domain   3:    1.49651 elapsed seconds
Timing for main: time 2016-08-29_09:17:30 on domain   3:    1.54707 elapsed seconds
Timing for main: time 2016-08-29_09:17:30 on domain   2:    4.99133 elapsed seconds
Timing for main: time 2016-08-29_09:17:30 on domain   1:   16.82418 elapsed seconds
Timing for main: time 2016-08-29_09:17:32 on domain   3:    1.52035 elapsed seconds
Timing for main: time 2016-08-29_09:17:35 on domain   3:    1.53518 elapsed seconds
Timing for main: time 2016-08-29_09:17:35 on domain   2:    4.96758 elapsed seconds
Timing for main: time 2016-08-29_09:17:37 on domain   3:    1.52399 elapsed seconds
Timing for main: time 2016-08-29_09:17:40 on domain   3:    1.53007 elapsed seconds
Timing for main: time 2016-08-29_09:17:40 on domain   2:    5.02942 elapsed seconds
Timing for main: time 2016-08-29_09:17:42 on domain   3:    1.50431 elapsed seconds
Timing for main: time 2016-08-29_09:17:45 on domain   3:    1.54683 elapsed seconds
Timing for main: time 2016-08-29_09:17:45 on domain   2:    4.99428 elapsed seconds
Timing for main: time 2016-08-29_09:17:45 on domain   1:   16.87169 elapsed seconds
Timing for main: time 2016-08-29_09:17:47 on domain   3:    1.49835 elapsed seconds
Timing for main: time 2016-08-29_09:17:50 on domain   3:    1.54209 elapsed seconds
Timing for main: time 2016-08-29_09:17:50 on domain   2:    4.94562 elapsed seconds
Timing for main: time 2016-08-29_09:17:52 on domain   3:    1.50237 elapsed seconds
Timing for main: time 2016-08-29_09:17:55 on domain   3:    1.54852 elapsed seconds
Timing for main: time 2016-08-29_09:17:55 on domain   2:    5.03946 elapsed seconds
Timing for main: time 2016-08-29_09:17:57 on domain   3:    1.49855 elapsed seconds
Timing for main: time 2016-08-29_09:18:00 on domain   3:    1.54333 elapsed seconds
Timing for main: time 2016-08-29_09:18:00 on domain   2:    4.99248 elapsed seconds
Timing for main: time 2016-08-29_09:18:00 on domain   1:   16.85369 elapsed seconds
Timing for main: time 2016-08-29_09:18:02 on domain   3:    8.03973 elapsed seconds
Timing for main: time 2016-08-29_09:18:05 on domain   3:    1.54694 elapsed seconds
Timing for main: time 2016-08-29_09:18:05 on domain   2:   15.86023 elapsed seconds
Timing for main: time 2016-08-29_09:18:07 on domain   3:    1.50723 elapsed seconds
Timing for main: time 2016-08-29_09:18:10 on domain   3:    1.55138 elapsed seconds
Timing for main: time 2016-08-29_09:18:10 on domain   2:    5.00526 elapsed seconds
Timing for main: time 2016-08-29_09:18:12 on domain   3:    1.52685 elapsed seconds
Timing for main: time 2016-08-29_09:18:15 on domain   3:    1.52418 elapsed seconds
Timing for main: time 2016-08-29_09:18:15 on domain   2:    5.00397 elapsed seconds
Timing for main: time 2016-08-29_09:18:15 on domain   1:   32.78698 elapsed seconds
Timing for main: time 2016-08-29_09:18:17 on domain   3:    1.50763 elapsed seconds
Timing for main: time 2016-08-29_09:18:20 on domain   3:    1.54116 elapsed seconds
Timing for main: time 2016-08-29_09:18:20 on domain   2:    4.96168 elapsed seconds
Timing for main: time 2016-08-29_09:18:22 on domain   3:    1.50315 elapsed seconds
Timing for main: time 2016-08-29_09:18:25 on domain   3:    1.54446 elapsed seconds
Timing for main: time 2016-08-29_09:18:25 on domain   2:    4.99820 elapsed seconds
Timing for main: time 2016-08-29_09:18:27 on domain   3:    1.50319 elapsed seconds
Timing for main: time 2016-08-29_09:18:30 on domain   3:    1.55112 elapsed seconds
Timing for main: time 2016-08-29_09:18:30 on domain   2:    5.00468 elapsed seconds
Timing for main: time 2016-08-29_09:18:30 on domain   1:   16.87012 elapsed seconds
Timing for main: time 2016-08-29_09:18:32 on domain   3:    1.51505 elapsed seconds
Timing for main: time 2016-08-29_09:18:35 on domain   3:    1.54257 elapsed seconds
Timing for main: time 2016-08-29_09:18:35 on domain   2:    4.96466 elapsed seconds
Timing for main: time 2016-08-29_09:18:37 on domain   3:    1.50519 elapsed seconds
Timing for main: time 2016-08-29_09:18:40 on domain   3:    1.54503 elapsed seconds
Timing for main: time 2016-08-29_09:18:40 on domain   2:    5.00381 elapsed seconds
Timing for main: time 2016-08-29_09:18:42 on domain   3:    1.53734 elapsed seconds
Timing for main: time 2016-08-29_09:18:45 on domain   3:    1.55929 elapsed seconds
Timing for main: time 2016-08-29_09:18:45 on domain   2:    5.03070 elapsed seconds
Timing for main: time 2016-08-29_09:18:45 on domain   1:   16.89893 elapsed seconds
Timing for main: time 2016-08-29_09:18:47 on domain   3:    1.50187 elapsed seconds
Timing for main: time 2016-08-29_09:18:50 on domain   3:    1.55660 elapsed seconds
Timing for main: time 2016-08-29_09:18:50 on domain   2:    4.95063 elapsed seconds
Timing for main: time 2016-08-29_09:18:52 on domain   3:    1.50663 elapsed seconds
Timing for main: time 2016-08-29_09:18:55 on domain   3:    1.54628 elapsed seconds
Timing for main: time 2016-08-29_09:18:55 on domain   2:    5.00923 elapsed seconds
Timing for main: time 2016-08-29_09:18:57 on domain   3:    1.50354 elapsed seconds
Timing for main: time 2016-08-29_09:19:00 on domain   3:    1.54837 elapsed seconds
Timing for main: time 2016-08-29_09:19:00 on domain   2:    4.99915 elapsed seconds
Timing for main: time 2016-08-29_09:19:00 on domain   1:   16.83902 elapsed seconds
Timing for main: time 2016-08-29_09:19:02 on domain   3:    1.51034 elapsed seconds
Timing for main: time 2016-08-29_09:19:05 on domain   3:    1.54496 elapsed seconds
Timing for main: time 2016-08-29_09:19:05 on domain   2:    4.96459 elapsed seconds
Timing for main: time 2016-08-29_09:19:07 on domain   3:    1.49996 elapsed seconds
Timing for main: time 2016-08-29_09:19:10 on domain   3:    1.55303 elapsed seconds
Timing for main: time 2016-08-29_09:19:10 on domain   2:    5.00879 elapsed seconds
Timing for main: time 2016-08-29_09:19:12 on domain   3:    1.51178 elapsed seconds
Timing for main: time 2016-08-29_09:19:15 on domain   3:    1.54713 elapsed seconds
Timing for main: time 2016-08-29_09:19:15 on domain   2:    5.01961 elapsed seconds
Timing for main: time 2016-08-29_09:19:15 on domain   1:   16.88824 elapsed seconds
Timing for main: time 2016-08-29_09:19:17 on domain   3:    1.51804 elapsed seconds
Timing for main: time 2016-08-29_09:19:20 on domain   3:    1.54023 elapsed seconds
Timing for main: time 2016-08-29_09:19:20 on domain   2:    4.96252 elapsed seconds
Timing for main: time 2016-08-29_09:19:22 on domain   3:    1.50388 elapsed seconds
Timing for main: time 2016-08-29_09:19:25 on domain   3:    1.58181 elapsed seconds
Timing for main: time 2016-08-29_09:19:25 on domain   2:    5.01815 elapsed seconds
Timing for main: time 2016-08-29_09:19:27 on domain   3:    1.50035 elapsed seconds
Timing for main: time 2016-08-29_09:19:30 on domain   3:    1.54082 elapsed seconds
Timing for main: time 2016-08-29_09:19:30 on domain   2:    4.98531 elapsed seconds
Timing for main: time 2016-08-29_09:19:30 on domain   1:   16.84442 elapsed seconds
Timing for main: time 2016-08-29_09:19:32 on domain   3:    1.51053 elapsed seconds
Timing for main: time 2016-08-29_09:19:35 on domain   3:    1.54288 elapsed seconds
Timing for main: time 2016-08-29_09:19:35 on domain   2:    5.03398 elapsed seconds
Timing for main: time 2016-08-29_09:19:37 on domain   3:    1.50629 elapsed seconds
Timing for main: time 2016-08-29_09:19:40 on domain   3:    1.54088 elapsed seconds
Timing for main: time 2016-08-29_09:19:40 on domain   2:    4.99926 elapsed seconds
Timing for main: time 2016-08-29_09:19:42 on domain   3:    1.50066 elapsed seconds
Timing for main: time 2016-08-29_09:19:45 on domain   3:    1.54379 elapsed seconds
Timing for main: time 2016-08-29_09:19:45 on domain   2:    5.03412 elapsed seconds
Timing for main: time 2016-08-29_09:19:45 on domain   1:   16.95347 elapsed seconds
Timing for main: time 2016-08-29_09:19:47 on domain   3:    1.50018 elapsed seconds
Timing for main: time 2016-08-29_09:19:50 on domain   3:    1.54098 elapsed seconds
Timing for main: time 2016-08-29_09:19:50 on domain   2:    4.94417 elapsed seconds
Timing for main: time 2016-08-29_09:19:52 on domain   3:    1.50219 elapsed seconds
Timing for main: time 2016-08-29_09:19:55 on domain   3:    1.54110 elapsed seconds
Timing for main: time 2016-08-29_09:19:55 on domain   2:    4.99062 elapsed seconds
Timing for main: time 2016-08-29_09:19:57 on domain   3:    1.50787 elapsed seconds
Timing for main: time 2016-08-29_09:20:00 on domain   3:    1.54361 elapsed seconds
Timing for main: time 2016-08-29_09:20:00 on domain   2:    4.98724 elapsed seconds
Timing for main: time 2016-08-29_09:20:00 on domain   1:   16.80778 elapsed seconds
Timing for main: time 2016-08-29_09:20:02 on domain   3:    1.50201 elapsed seconds
Timing for main: time 2016-08-29_09:20:05 on domain   3:    1.56589 elapsed seconds
Timing for main: time 2016-08-29_09:20:05 on domain   2:    4.99013 elapsed seconds
Timing for main: time 2016-08-29_09:20:07 on domain   3:    1.49583 elapsed seconds
Timing for main: time 2016-08-29_09:20:10 on domain   3:    1.54755 elapsed seconds
Timing for main: time 2016-08-29_09:20:10 on domain   2:    4.99992 elapsed seconds
Timing for main: time 2016-08-29_09:20:12 on domain   3:    1.53395 elapsed seconds
Timing for main: time 2016-08-29_09:20:15 on domain   3:    1.56250 elapsed seconds
Timing for main: time 2016-08-29_09:20:15 on domain   2:    5.01709 elapsed seconds
Timing for main: time 2016-08-29_09:20:15 on domain   1:   16.89952 elapsed seconds
Timing for main: time 2016-08-29_09:20:17 on domain   3:    1.65785 elapsed seconds
Timing for main: time 2016-08-29_09:20:20 on domain   3:    1.49767 elapsed seconds
[...]
Timing for main: time 2016-08-29_09:24:07 on domain   3:    1.49995 elapsed seconds
Timing for main: time 2016-08-29_09:24:10 on domain   3:    1.54346 elapsed seconds
Timing for main: time 2016-08-29_09:24:10 on domain   2:    4.99818 elapsed seconds
Timing for main: time 2016-08-29_09:24:12 on domain   3:    1.50761 elapsed seconds
Timing for main: time 2016-08-29_09:24:15 on domain   3:    1.53780 elapsed seconds
Timing for main: time 2016-08-29_09:24:15 on domain   2:    4.98914 elapsed seconds
Timing for main: time 2016-08-29_09:24:15 on domain   1:   32.78522 elapsed seconds
Timing for main: time 2016-08-29_09:24:17 on domain   3:    1.51025 elapsed seconds
Timing for main: time 2016-08-29_09:24:20 on domain   3:    1.54631 elapsed seconds
Timing for main: time 2016-08-29_09:24:20 on domain   2:    4.96277 elapsed seconds
Timing for main: time 2016-08-29_09:24:22 on domain   3:    1.50749 elapsed seconds
Timing for main: time 2016-08-29_09:24:25 on domain   3:    1.54518 elapsed seconds
Timing for main: time 2016-08-29_09:24:25 on domain   2:    4.99764 elapsed seconds
Timing for main: time 2016-08-29_09:24:27 on domain   3:    1.56087 elapsed seconds
Timing for main: time 2016-08-29_09:24:30 on domain   3:    1.55749 elapsed seconds
Timing for main: time 2016-08-29_09:24:30 on domain   2:    5.05347 elapsed seconds
Timing for main: time 2016-08-29_09:24:30 on domain   1:   16.93370 elapsed seconds
Timing for main: time 2016-08-29_09:24:32 on domain   3:    1.50469 elapsed seconds
Timing for main: time 2016-08-29_09:24:35 on domain   3:    1.55162 elapsed seconds
Timing for main: time 2016-08-29_09:24:35 on domain   2:    4.96549 elapsed seconds
Timing for main: time 2016-08-29_09:24:37 on domain   3:    1.50724 elapsed seconds
Timing for main: time 2016-08-29_09:24:40 on domain   3:    1.54778 elapsed seconds
Timing for main: time 2016-08-29_09:24:40 on domain   2:    5.00369 elapsed seconds
Timing for main: time 2016-08-29_09:24:42 on domain   3:    1.51656 elapsed seconds
Timing for main: time 2016-08-29_09:24:45 on domain   3:    1.54488 elapsed seconds
Timing for main: time 2016-08-29_09:24:45 on domain   2:    5.00584 elapsed seconds
Timing for main: time 2016-08-29_09:24:45 on domain   1:   16.86621 elapsed seconds
Timing for main: time 2016-08-29_09:24:47 on domain   3:    1.51207 elapsed seconds
Timing for main: time 2016-08-29_09:24:50 on domain   3:    1.54292 elapsed seconds
Timing for main: time 2016-08-29_09:24:50 on domain   2:    4.95388 elapsed seconds
Timing for main: time 2016-08-29_09:24:52 on domain   3:    1.50209 elapsed seconds
Timing for main: time 2016-08-29_09:24:55 on domain   3:    1.57279 elapsed seconds
Timing for main: time 2016-08-29_09:24:55 on domain   2:    5.02151 elapsed seconds
Timing for main: time 2016-08-29_09:24:57 on domain   3:    1.51096 elapsed seconds
Timing for main: time 2016-08-29_09:25:00 on domain   3:    1.54727 elapsed seconds
Timing for main: time 2016-08-29_09:25:00 on domain   2:    5.01112 elapsed seconds
Timing for main: time 2016-08-29_09:25:00 on domain   1:   16.86861 elapsed seconds
Timing for main: time 2016-08-29_09:25:02 on domain   3:    1.50145 elapsed seconds
Timing for main: time 2016-08-29_09:25:05 on domain   3:    1.56851 elapsed seconds
Timing for main: time 2016-08-29_09:25:05 on domain   2:    4.95737 elapsed seconds
Timing for main: time 2016-08-29_09:25:07 on domain   3:    1.51415 elapsed seconds
Timing for main: time 2016-08-29_09:25:10 on domain   3:    1.54938 elapsed seconds
Timing for main: time 2016-08-29_09:25:10 on domain   2:    5.01174 elapsed seconds
Timing for main: time 2016-08-29_09:25:12 on domain   3:    1.50505 elapsed seconds
Timing for main: time 2016-08-29_09:25:15 on domain   3:    1.53959 elapsed seconds
Timing for main: time 2016-08-29_09:25:15 on domain   2:    5.00334 elapsed seconds
Timing for main: time 2016-08-29_09:25:15 on domain   1:   16.85461 elapsed seconds
Timing for main: time 2016-08-29_09:25:17 on domain   3:    1.50591 elapsed seconds
Timing for main: time 2016-08-29_09:25:20 on domain   3:    1.54220 elapsed seconds
Timing for main: time 2016-08-29_09:25:20 on domain   2:    4.96169 elapsed seconds
Timing for main: time 2016-08-29_09:25:22 on domain   3:    1.50391 elapsed seconds
Timing for main: time 2016-08-29_09:25:25 on domain   3:    1.54411 elapsed seconds
Timing for main: time 2016-08-29_09:25:25 on domain   2:    4.98840 elapsed seconds
Timing for main: time 2016-08-29_09:25:27 on domain   3:    1.50758 elapsed seconds
Timing for main: time 2016-08-29_09:25:30 on domain   3:    1.53767 elapsed seconds
Timing for main: time 2016-08-29_09:25:30 on domain   2:    4.98586 elapsed seconds
Timing for main: time 2016-08-29_09:25:30 on domain   1:   16.81092 elapsed seconds
Timing for main: time 2016-08-29_09:25:32 on domain   3:    1.50413 elapsed seconds
Timing for main: time 2016-08-29_09:25:35 on domain   3:    1.54952 elapsed seconds
Timing for main: time 2016-08-29_09:25:35 on domain   2:    4.96707 elapsed seconds
Timing for main: time 2016-08-29_09:25:37 on domain   3:    1.50156 elapsed seconds
Timing for main: time 2016-08-29_09:25:40 on domain   3:    1.54843 elapsed seconds
Timing for main: time 2016-08-29_09:25:40 on domain   2:    4.99251 elapsed seconds
Timing for main: time 2016-08-29_09:25:42 on domain   3:    1.51202 elapsed seconds
Timing for main: time 2016-08-29_09:25:45 on domain   3:    1.55486 elapsed seconds
Timing for main: time 2016-08-29_09:25:45 on domain   2:    5.00478 elapsed seconds
Timing for main: time 2016-08-29_09:25:45 on domain   1:   16.84424 elapsed seconds
Timing for main: time 2016-08-29_09:25:47 on domain   3:    1.51034 elapsed seconds
Timing for main: time 2016-08-29_09:25:50 on domain   3:    1.57502 elapsed seconds
Timing for main: time 2016-08-29_09:25:50 on domain   2:    5.00017 elapsed seconds
Timing for main: time 2016-08-29_09:25:52 on domain   3:    1.50351 elapsed seconds
Timing for main: time 2016-08-29_09:25:55 on domain   3:    1.54549 elapsed seconds
Timing for main: time 2016-08-29_09:25:55 on domain   2:    5.00493 elapsed seconds
Timing for main: time 2016-08-29_09:25:57 on domain   3:    1.50405 elapsed seconds
Timing for main: time 2016-08-29_09:26:00 on domain   3:    1.55691 elapsed seconds
Timing for main: time 2016-08-29_09:26:00 on domain   2:    5.00516 elapsed seconds
Timing for main: time 2016-08-29_09:26:00 on domain   1:   16.89733 elapsed seconds
Timing for main: time 2016-08-29_09:26:02 on domain   3:    1.50524 elapsed seconds
Timing for main: time 2016-08-29_09:26:05 on domain   3:    1.53941 elapsed seconds
Timing for main: time 2016-08-29_09:26:05 on domain   2:    4.98439 elapsed seconds
Timing for main: time 2016-08-29_09:26:07 on domain   3:    1.50157 elapsed seconds
Timing for main: time 2016-08-29_09:26:10 on domain   3:    1.53831 elapsed seconds
Timing for main: time 2016-08-29_09:26:10 on domain   2:    4.99290 elapsed seconds
Timing for main: time 2016-08-29_09:26:12 on domain   3:    1.50493 elapsed seconds
Timing for main: time 2016-08-29_09:26:15 on domain   3:    1.60939 elapsed seconds
Timing for main: time 2016-08-29_09:26:15 on domain   2:    5.09001 elapsed seconds
Timing for main: time 2016-08-29_09:26:15 on domain   1:   16.94566 elapsed seconds
Timing for main: time 2016-08-29_09:26:17 on domain   3:    1.50412 elapsed seconds
Timing for main: time 2016-08-29_09:26:20 on domain   3:    1.54363 elapsed seconds
Timing for main: time 2016-08-29_09:26:20 on domain   2:    4.95904 elapsed seconds
Timing for main: time 2016-08-29_09:26:22 on domain   3:    1.50820 elapsed seconds
Timing for main: time 2016-08-29_09:26:25 on domain   3:    1.54225 elapsed seconds
Timing for main: time 2016-08-29_09:26:25 on domain   2:    5.00181 elapsed seconds
Timing for main: time 2016-08-29_09:26:27 on domain   3:    1.50330 elapsed seconds
Timing for main: time 2016-08-29_09:26:30 on domain   3:    1.55288 elapsed seconds
Timing for main: time 2016-08-29_09:26:30 on domain   2:    4.98817 elapsed seconds
Timing for main: time 2016-08-29_09:26:30 on domain   1:   16.83396 elapsed seconds
Timing for main: time 2016-08-29_09:26:32 on domain   3:    1.50749 elapsed seconds
Timing for main: time 2016-08-29_09:26:35 on domain   3:    1.52791 elapsed seconds
Timing for main: time 2016-08-29_09:26:35 on domain   2:    4.94046 elapsed seconds
Timing for main: time 2016-08-29_09:26:37 on domain   3:    1.51580 elapsed seconds
Timing for main: time 2016-08-29_09:26:40 on domain   3:    1.53737 elapsed seconds
Timing for main: time 2016-08-29_09:26:40 on domain   2:    4.99721 elapsed seconds
Timing for main: time 2016-08-29_09:26:42 on domain   3:    1.53630 elapsed seconds
Timing for main: time 2016-08-29_09:26:45 on domain   3:    1.50990 elapsed seconds
Timing for main: time 2016-08-29_09:26:45 on domain   2:    5.01983 elapsed seconds
Timing for main: time 2016-08-29_09:26:45 on domain   1:   16.83891 elapsed seconds
Timing for main: time 2016-08-29_09:26:47 on domain   3:    1.50957 elapsed seconds
Timing for main: time 2016-08-29_09:26:50 on domain   3:    1.54593 elapsed seconds
Timing for main: time 2016-08-29_09:26:50 on domain   2:    4.96027 elapsed seconds
Timing for main: time 2016-08-29_09:26:52 on domain   3:    1.51091 elapsed seconds
Timing for main: time 2016-08-29_09:26:55 on domain   3:    1.53778 elapsed seconds
Timing for main: time 2016-08-29_09:26:55 on domain   2:    4.99529 elapsed seconds
Timing for main: time 2016-08-29_09:26:57 on domain   3:    1.50309 elapsed seconds
Timing for main: time 2016-08-29_09:27:00 on domain   3:    1.54399 elapsed seconds
Timing for main: time 2016-08-29_09:27:00 on domain   2:    5.00925 elapsed seconds
Timing for main: time 2016-08-29_09:27:00 on domain   1:   16.85043 elapsed seconds
Timing for main: time 2016-08-29_09:27:02 on domain   3:    8.06440 elapsed seconds
Timing for main: time 2016-08-29_09:27:05 on domain   3:    1.54283 elapsed seconds
Timing for main: time 2016-08-29_09:27:05 on domain   2:   15.87860 elapsed seconds
Timing for main: time 2016-08-29_09:27:07 on domain   3:    1.52674 elapsed seconds
Timing for main: time 2016-08-29_09:27:10 on domain   3:    1.52947 elapsed seconds
Timing for main: time 2016-08-29_09:27:10 on domain   2:    5.01258 elapsed seconds
Timing for main: time 2016-08-29_09:27:12 on domain   3:    1.49645 elapsed seconds
Timing for main: time 2016-08-29_09:27:15 on domain   3:    1.54256 elapsed seconds
Timing for main: time 2016-08-29_09:27:15 on domain   2:    4.99562 elapsed seconds
Timing for main: time 2016-08-29_09:27:15 on domain   1:   32.80669 elapsed seconds
Timing for main: time 2016-08-29_09:27:17 on domain   3:    1.50675 elapsed seconds
Timing for main: time 2016-08-29_09:27:20 on domain   3:    1.56888 elapsed seconds
Timing for main: time 2016-08-29_09:27:20 on domain   2:    4.98688 elapsed seconds
Timing for main: time 2016-08-29_09:27:22 on domain   3:    1.53303 elapsed seconds
Timing for main: time 2016-08-29_09:27:25 on domain   3:    1.54733 elapsed seconds
Timing for main: time 2016-08-29_09:27:25 on domain   2:    5.03279 elapsed seconds
Timing for main: time 2016-08-29_09:27:27 on domain   3:    1.50932 elapsed seconds
Timing for main: time 2016-08-29_09:27:30 on domain   3:    1.54899 elapsed seconds
Timing for main: time 2016-08-29_09:27:30 on domain   2:    5.01035 elapsed seconds
Timing for main: time 2016-08-29_09:27:30 on domain   1:   16.91252 elapsed seconds
Timing for main: time 2016-08-29_09:27:32 on domain   3:    1.50364 elapsed seconds
Timing for main: time 2016-08-29_09:27:35 on domain   3:    1.56546 elapsed seconds
Timing for main: time 2016-08-29_09:27:35 on domain   2:    4.96895 elapsed seconds
Timing for main: time 2016-08-29_09:27:37 on domain   3:    1.50312 elapsed seconds
Timing for main: time 2016-08-29_09:27:40 on domain   3:    1.54801 elapsed seconds
Timing for main: time 2016-08-29_09:27:40 on domain   2:    4.99562 elapsed seconds
Timing for main: time 2016-08-29_09:27:42 on domain   3:    1.50339 elapsed seconds
Timing for main: time 2016-08-29_09:27:45 on domain   3:    1.56391 elapsed seconds
Timing for main: time 2016-08-29_09:27:45 on domain   2:    5.00757 elapsed seconds
Timing for main: time 2016-08-29_09:27:45 on domain   1:   16.84935 elapsed seconds
Timing for main: time 2016-08-29_09:27:47 on domain   3:    1.50424 elapsed seconds
Timing for main: time 2016-08-29_09:27:50 on domain   3:    1.54521 elapsed seconds
Timing for main: time 2016-08-29_09:27:50 on domain   2:    5.00147 elapsed seconds
Timing for main: time 2016-08-29_09:27:52 on domain   3:    1.50480 elapsed seconds
Timing for main: time 2016-08-29_09:27:55 on domain   3:    1.54505 elapsed seconds
Timing for main: time 2016-08-29_09:27:55 on domain   2:    5.09424 elapsed seconds
Timing for main: time 2016-08-29_09:27:57 on domain   3:    1.50557 elapsed seconds
Timing for main: time 2016-08-29_09:28:00 on domain   3:    1.54499 elapsed seconds
Timing for main: time 2016-08-29_09:28:00 on domain   2:    4.99796 elapsed seconds
Timing for main: time 2016-08-29_09:28:00 on domain   1:   16.97270 elapsed seconds
Timing for main: time 2016-08-29_09:28:02 on domain   3:    1.51134 elapsed seconds
Timing for main: time 2016-08-29_09:28:05 on domain   3:    1.53336 elapsed seconds
Timing for main: time 2016-08-29_09:28:05 on domain   2:    4.94958 elapsed seconds
Timing for main: time 2016-08-29_09:28:07 on domain   3:    1.50358 elapsed seconds
Timing for main: time 2016-08-29_09:28:10 on domain   3:    1.54465 elapsed seconds
Timing for main: time 2016-08-29_09:28:10 on domain   2:    5.00272 elapsed seconds
Timing for main: time 2016-08-29_09:28:12 on domain   3:    1.50245 elapsed seconds
Timing for main: time 2016-08-29_09:28:15 on domain   3:    1.57752 elapsed seconds
Timing for main: time 2016-08-29_09:28:15 on domain   2:    5.02808 elapsed seconds
Timing for main: time 2016-08-29_09:28:15 on domain   1:   16.85894 elapsed seconds
Timing for main: time 2016-08-29_09:28:17 on domain   3:    1.49867 elapsed seconds
Timing for main: time 2016-08-29_09:28:20 on domain   3:    1.54903 elapsed seconds
Timing for main: time 2016-08-29_09:28:20 on domain   2:    4.95253 elapsed seconds
Timing for main: time 2016-08-29_09:28:22 on domain   3:    1.50884 elapsed seconds
Timing for main: time 2016-08-29_09:28:25 on domain   3:    1.53517 elapsed seconds
Timing for main: time 2016-08-29_09:28:25 on domain   2:    5.00108 elapsed seconds
Timing for main: time 2016-08-29_09:28:27 on domain   3:    1.50124 elapsed seconds
Timing for main: time 2016-08-29_09:28:30 on domain   3:    1.56118 elapsed seconds
Timing for main: time 2016-08-29_09:28:30 on domain   2:    5.00249 elapsed seconds
Timing for main: time 2016-08-29_09:28:30 on domain   1:   16.86212 elapsed seconds
Timing for main: time 2016-08-29_09:28:32 on domain   3:    1.49994 elapsed seconds
Timing for main: time 2016-08-29_09:28:35 on domain   3:    1.54357 elapsed seconds
Timing for main: time 2016-08-29_09:28:35 on domain   2:    4.95775 elapsed seconds
Timing for main: time 2016-08-29_09:28:37 on domain   3:    1.50494 elapsed seconds
Timing for main: time 2016-08-29_09:28:40 on domain   3:    1.54454 elapsed seconds
Timing for main: time 2016-08-29_09:28:40 on domain   2:    5.02161 elapsed seconds
Timing for main: time 2016-08-29_09:28:42 on domain   3:    1.50941 elapsed seconds
Timing for main: time 2016-08-29_09:28:45 on domain   3:    1.54204 elapsed seconds
Timing for main: time 2016-08-29_09:28:45 on domain   2:    5.00114 elapsed seconds
Timing for main: time 2016-08-29_09:28:45 on domain   1:   16.85978 elapsed seconds
Timing for main: time 2016-08-29_09:28:47 on domain   3:    1.50545 elapsed seconds
Timing for main: time 2016-08-29_09:28:50 on domain   3:    1.54333 elapsed seconds
Timing for main: time 2016-08-29_09:28:50 on domain   2:    4.96231 elapsed seconds
Timing for main: time 2016-08-29_09:28:52 on domain   3:    1.50734 elapsed seconds
Timing for main: time 2016-08-29_09:28:55 on domain   3:    1.55290 elapsed seconds
Timing for main: time 2016-08-29_09:28:55 on domain   2:    5.00885 elapsed seconds
Timing for main: time 2016-08-29_09:28:57 on domain   3:    1.51085 elapsed seconds
Timing for main: time 2016-08-29_09:29:00 on domain   3:    1.53931 elapsed seconds
Timing for main: time 2016-08-29_09:29:00 on domain   2:    4.99868 elapsed seconds
Timing for main: time 2016-08-29_09:29:00 on domain   1:   16.85145 elapsed seconds
Timing for main: time 2016-08-29_09:29:02 on domain   3:    1.51015 elapsed seconds
Timing for main: time 2016-08-29_09:29:05 on domain   3:    1.53559 elapsed seconds
Timing for main: time 2016-08-29_09:29:05 on domain   2:    4.95903 elapsed seconds
Timing for main: time 2016-08-29_09:29:07 on domain   3:    1.63617 elapsed seconds
Timing for main: time 2016-08-29_09:29:10 on domain   3:    1.58865 elapsed seconds
Timing for main: time 2016-08-29_09:29:10 on domain   2:    5.18997 elapsed seconds
Timing for main: time 2016-08-29_09:29:12 on domain   3:    1.50942 elapsed seconds
Timing for main: time 2016-08-29_09:29:15 on domain   3:    1.70931 elapsed seconds
Timing for main: time 2016-08-29_09:29:15 on domain   2:    5.26235 elapsed seconds
Timing for main: time 2016-08-29_09:29:15 on domain   1:   17.29624 elapsed seconds
Timing for main: time 2016-08-29_09:29:17 on domain   3:    1.53835 elapsed seconds
Timing for main: time 2016-08-29_09:29:20 on domain   3:    1.56549 elapsed seconds
Timing for main: time 2016-08-29_09:29:20 on domain   2:    5.04160 elapsed seconds
Timing for main: time 2016-08-29_09:29:22 on domain   3:    1.58375 elapsed seconds
Timing for main: time 2016-08-29_09:29:25 on domain   3:    1.58310 elapsed seconds
Timing for main: time 2016-08-29_09:29:25 on domain   2:    5.12672 elapsed seconds
Timing for main: time 2016-08-29_09:29:27 on domain   3:    1.50759 elapsed seconds
Timing for main: time 2016-08-29_09:29:30 on domain   3:    1.54421 elapsed seconds
Timing for main: time 2016-08-29_09:29:30 on domain   2:    5.00314 elapsed seconds
Timing for main: time 2016-08-29_09:29:30 on domain   1:   17.12391 elapsed seconds
Timing for main: time 2016-08-29_09:29:32 on domain   3:    1.50909 elapsed seconds
Timing for main: time 2016-08-29_09:29:35 on domain   3:    1.55317 elapsed seconds
Timing for main: time 2016-08-29_09:29:35 on domain   2:    4.97663 elapsed seconds
Timing for main: time 2016-08-29_09:29:37 on domain   3:    1.50891 elapsed seconds
Timing for main: time 2016-08-29_09:29:40 on domain   3:    1.54165 elapsed seconds
Timing for main: time 2016-08-29_09:29:40 on domain   2:    4.99602 elapsed seconds
Timing for main: time 2016-08-29_09:29:42 on domain   3:    1.50907 elapsed seconds
Timing for main: time 2016-08-29_09:29:45 on domain   3:    1.54321 elapsed seconds
Timing for main: time 2016-08-29_09:29:45 on domain   2:    4.99666 elapsed seconds
Timing for main: time 2016-08-29_09:29:45 on domain   1:   16.85217 elapsed seconds
Timing for main: time 2016-08-29_09:29:47 on domain   3:    1.50851 elapsed seconds
Timing for main: time 2016-08-29_09:29:50 on domain   3:    1.53335 elapsed seconds
Timing for main: time 2016-08-29_09:29:50 on domain   2:    5.00379 elapsed seconds
Timing for main: time 2016-08-29_09:29:52 on domain   3:    1.51067 elapsed seconds
Timing for main: time 2016-08-29_09:29:55 on domain   3:    1.53380 elapsed seconds
Timing for main: time 2016-08-29_09:29:55 on domain   2:    4.93332 elapsed seconds
Timing for main: time 2016-08-29_09:29:57 on domain   3:    1.50894 elapsed seconds
Timing for main: time 2016-08-29_09:30:00 on domain   3:    1.55156 elapsed seconds
Timing for main: time 2016-08-29_09:30:00 on domain   2:    5.04089 elapsed seconds
Timing for main: time 2016-08-29_09:30:00 on domain   1:   16.85828 elapsed seconds
wrf: SUCCESS COMPLETE WRF
taskid: 0 hostname: nia1377.scinet.local
