Quilting with   1 groups of   0 I/O tasks.
 Ntasks in X           10 , ntasks in Y           16
Domain # 1: dx =  3000.000 m
Domain # 2: dx =  1000.000 m
Domain # 3: dx =   500.000 m
WRF V4.2.1 MODEL
 *************************************
 Parent domain
 ids,ide,jds,jde            1         793           1         853
 ims,ime,jms,jme           -4          87          -4          61
 ips,ipe,jps,jpe            1          80           1          54
 *************************************
DYNAMICS OPTION: Eulerian Mass Coordinate
 alloc_space_field: domain            1 ,              229864900  bytes allocated
med_initialdata_input: calling input_input
 Domain            1  Setting history stream           24  for u
 Domain            1  Setting history stream           24  for v
 Domain            1  Setting history stream           24  for t
 Domain            1  Setting history stream           24  for qvapor
 Domain            1  Setting history stream           24  for xlat
 Domain            1  Setting history stream           24  for xlong
 Domain            1  Setting history stream           24  for lu_index
 Domain            1  Setting history stream           24  for hgt
 Input data is acceptable to use: wrfinput_d01
 CURRENT DATE          = 2016-08-29_09:00:00
 SIMULATION START DATE = 2016-08-29_00:00:00
Timing for processing wrfinput file (stream 0) for domain        1:   37.33406 elapsed seconds
Max map factor in domain 1 =  1.08. Scale the dt in the model accordingly.
 D01: Time step                              =    15.00000      (s)
 D01: Grid Distance                          =    3.000000      (km)
 D01: Grid Distance Ratio dt/dx              =    5.000000      (s/km)
 D01: Ratio Including Maximum Map Factor     =    5.392106      (s/km)
 D01: NML defined reasonable_time_step_ratio =    6.000000
INPUT LandUse = "MODIFIED_IGBP_MODIS_NOAH"
 LANDUSE TYPE = "MODIFIED_IGBP_MODIS_NOAH" FOUND          33  CATEGORIES           2  SEASONS WATER CATEGORY =           17  SNOW CATEGORY =           15
INITIALIZE THREE Noah LSM RELATED TABLES
Skipping over LUTYPE = USGS
 LANDUSE TYPE = MODIFIED_IGBP_MODIS_NOAH FOUND          20  CATEGORIES
 INPUT SOIL TEXTURE CLASSIFICATION = STAS
 SOIL TEXTURE CLASSIFICATION = STAS FOUND          19  CATEGORIES
ThompMP: read qr_acr_qgV2.dat instead of computing
ThompMP: read qr_acr_qsV2.dat instead of computing
ThompMP: read freezeH2O.dat instead of computing
 *************************************
 Nesting domain
 ids,ide,jds,jde            1         805           1         805
 ims,ime,jms,jme           -4          93          -4          63
 ips,ipe,jps,jpe            1          81           1          51
 INTERMEDIATE domain
 ids,ide,jds,jde          269         542         299         572
 ims,ime,jms,jme          264         307         294         327
 ips,ipe,jps,jpe          267         297         297         317
 *************************************
 alloc_space_field: domain            2 ,               20555040  bytes allocated
 alloc_space_field: domain            2 ,              249987536  bytes allocated
*** Initializing nest domain # 2 from an input file. ***
med_initialdata_input: calling input_input
 Domain            2  Setting history stream           24  for u
 Domain            2  Setting history stream           24  for v
 Domain            2  Setting history stream           24  for t
 Domain            2  Setting history stream           24  for qvapor
 Domain            2  Setting history stream           24  for xlat
 Domain            2  Setting history stream           24  for xlong
 Domain            2  Setting history stream           24  for lu_index
 Domain            2  Setting history stream           24  for hgt
 Input data is acceptable to use: wrfinput_d02
Timing for processing wrfinput file (stream 0) for domain        2:   35.30025 elapsed seconds
INPUT LandUse = "MODIFIED_IGBP_MODIS_NOAH"
 LANDUSE TYPE = "MODIFIED_IGBP_MODIS_NOAH" FOUND          33  CATEGORIES           2  SEASONS WATER CATEGORY =           17  SNOW CATEGORY =           15
INITIALIZE THREE Noah LSM RELATED TABLES
Skipping over LUTYPE = USGS
 LANDUSE TYPE = MODIFIED_IGBP_MODIS_NOAH FOUND          20  CATEGORIES
 INPUT SOIL TEXTURE CLASSIFICATION = STAS
 SOIL TEXTURE CLASSIFICATION = STAS FOUND          19  CATEGORIES
INPUT LandUse = "MODIFIED_IGBP_MODIS_NOAH"
 LANDUSE TYPE = "MODIFIED_IGBP_MODIS_NOAH" FOUND          33  CATEGORIES           2  SEASONS WATER CATEGORY =           17  SNOW CATEGORY =           15
INITIALIZE THREE Noah LSM RELATED TABLES
Skipping over LUTYPE = USGS
 LANDUSE TYPE = MODIFIED_IGBP_MODIS_NOAH FOUND          20  CATEGORIES
 INPUT SOIL TEXTURE CLASSIFICATION = STAS
 SOIL TEXTURE CLASSIFICATION = STAS FOUND          19  CATEGORIES
Max map factor in domain 1 =  1.08. Scale the dt in the model accordingly.
 D01: Time step                              =    15.00000      (s)
 D01: Grid Distance                          =    3.000000      (km)
 D01: Grid Distance Ratio dt/dx              =    5.000000      (s/km)
 D01: Ratio Including Maximum Map Factor     =    5.392106      (s/km)
 D01: NML defined reasonable_time_step_ratio =    6.000000
INPUT LandUse = "MODIFIED_IGBP_MODIS_NOAH"
 LANDUSE TYPE = "MODIFIED_IGBP_MODIS_NOAH" FOUND          33  CATEGORIES           2  SEASONS WATER CATEGORY =           17  SNOW CATEGORY =           15
INITIALIZE THREE Noah LSM RELATED TABLES
Skipping over LUTYPE = USGS
 LANDUSE TYPE = MODIFIED_IGBP_MODIS_NOAH FOUND          20  CATEGORIES
 INPUT SOIL TEXTURE CLASSIFICATION = STAS
 SOIL TEXTURE CLASSIFICATION = STAS FOUND          19  CATEGORIES
Timing for Writing ISC2021_WRF_VALIDATION_OUTPUT_01_2016-08-29_09:00:00 for domain        1:    2.21843 elapsed seconds
 Input data is acceptable to use: wrfbdy_d01
 THIS TIME 2016-08-29_00:00:00, NEXT TIME 2016-08-29_03:00:00
 Input data is acceptable to use: wrfbdy_d01
 THIS TIME 2016-08-29_03:00:00, NEXT TIME 2016-08-29_06:00:00
 Input data is acceptable to use: wrfbdy_d01
 THIS TIME 2016-08-29_06:00:00, NEXT TIME 2016-08-29_09:00:00
 Input data is acceptable to use: wrfbdy_d01
Timing for processing lateral boundary for domain        1:    0.96455 elapsed seconds
WRF NUMBER OF TILES FROM OMP_GET_MAX_THREADS =   1
 Tile Strategy is not specified. Assuming 1D-Y
WRF TILE   1 IS      1 IE     80 JS      1 JE     54
WRF NUMBER OF TILES =   1
 *************************************
 Nesting domain
 ids,ide,jds,jde            1        1001           1        1001
 ims,ime,jms,jme           -4         110          -4          74
 ips,ipe,jps,jpe            1         100           1          63
 INTERMEDIATE domain
 ids,ide,jds,jde          149         654         149         654
 ims,ime,jms,jme          144         210         144         191
 ips,ipe,jps,jpe          147         200         147         181
 *************************************
 alloc_space_field: domain            3 ,               44187840  bytes allocated
 alloc_space_field: domain            3 ,              337182632  bytes allocated
*** Initializing nest domain # 3 from an input file. ***
med_initialdata_input: calling input_input
 Domain            3  Setting history stream           24  for u
 Domain            3  Setting history stream           24  for v
 Domain            3  Setting history stream           24  for t
 Domain            3  Setting history stream           24  for qvapor
 Domain            3  Setting history stream           24  for xlat
 Domain            3  Setting history stream           24  for xlong
 Domain            3  Setting history stream           24  for lu_index
 Domain            3  Setting history stream           24  for hgt
 Input data is acceptable to use: wrfinput_d03
Timing for processing wrfinput file (stream 0) for domain        3:   57.30909 elapsed seconds
INPUT LandUse = "MODIFIED_IGBP_MODIS_NOAH"
 LANDUSE TYPE = "MODIFIED_IGBP_MODIS_NOAH" FOUND          33  CATEGORIES           2  SEASONS WATER CATEGORY =           17  SNOW CATEGORY =           15
INITIALIZE THREE Noah LSM RELATED TABLES
Skipping over LUTYPE = USGS
 LANDUSE TYPE = MODIFIED_IGBP_MODIS_NOAH FOUND          20  CATEGORIES
 INPUT SOIL TEXTURE CLASSIFICATION = STAS
 SOIL TEXTURE CLASSIFICATION = STAS FOUND          19  CATEGORIES
INPUT LandUse = "MODIFIED_IGBP_MODIS_NOAH"
 LANDUSE TYPE = "MODIFIED_IGBP_MODIS_NOAH" FOUND          33  CATEGORIES           2  SEASONS WATER CATEGORY =           17  SNOW CATEGORY =           15
INITIALIZE THREE Noah LSM RELATED TABLES
Skipping over LUTYPE = USGS
 LANDUSE TYPE = MODIFIED_IGBP_MODIS_NOAH FOUND          20  CATEGORIES
 INPUT SOIL TEXTURE CLASSIFICATION = STAS
 SOIL TEXTURE CLASSIFICATION = STAS FOUND          19  CATEGORIES
INPUT LandUse = "MODIFIED_IGBP_MODIS_NOAH"
 LANDUSE TYPE = "MODIFIED_IGBP_MODIS_NOAH" FOUND          33  CATEGORIES           2  SEASONS WATER CATEGORY =           17  SNOW CATEGORY =           15
INITIALIZE THREE Noah LSM RELATED TABLES
Skipping over LUTYPE = USGS
 LANDUSE TYPE = MODIFIED_IGBP_MODIS_NOAH FOUND          20  CATEGORIES
 INPUT SOIL TEXTURE CLASSIFICATION = STAS
 SOIL TEXTURE CLASSIFICATION = STAS FOUND          19  CATEGORIES
Timing for Writing ISC2021_WRF_VALIDATION_OUTPUT_02_2016-08-29_09:00:00 for domain        2:    2.40628 elapsed seconds
WRF NUMBER OF TILES FROM OMP_GET_MAX_THREADS =   1
 Tile Strategy is not specified. Assuming 1D-Y
WRF TILE   1 IS      1 IE     81 JS      1 JE     51
WRF NUMBER OF TILES =   1
Timing for Writing ISC2021_WRF_VALIDATION_OUTPUT_03_2016-08-29_09:00:00 for domain        3:    3.18593 elapsed seconds
WRF NUMBER OF TILES FROM OMP_GET_MAX_THREADS =   1
 Tile Strategy is not specified. Assuming 1D-Y
WRF TILE   1 IS      1 IE    100 JS      1 JE     63
WRF NUMBER OF TILES =   1
Timing for main: time 2016-08-29_09:00:02 on domain   3:   11.93080 elapsed seconds
Timing for main: time 2016-08-29_09:00:05 on domain   3:    1.64205 elapsed seconds
Timing for main: time 2016-08-29_09:00:05 on domain   2:   83.43571 elapsed seconds
Timing for main: time 2016-08-29_09:00:07 on domain   3:    1.57732 elapsed seconds
Timing for main: time 2016-08-29_09:00:10 on domain   3:    1.64824 elapsed seconds
Timing for main: time 2016-08-29_09:00:10 on domain   2:    5.34714 elapsed seconds
Timing for main: time 2016-08-29_09:00:12 on domain   3:    1.55582 elapsed seconds
Timing for main: time 2016-08-29_09:00:15 on domain   3:    1.64352 elapsed seconds
Timing for main: time 2016-08-29_09:00:15 on domain   2:    5.32574 elapsed seconds
Timing for main: time 2016-08-29_09:00:15 on domain   1:  143.03401 elapsed seconds
Timing for main: time 2016-08-29_09:00:17 on domain   3:    1.58388 elapsed seconds
Timing for main: time 2016-08-29_09:00:20 on domain   3:    1.64233 elapsed seconds
Timing for main: time 2016-08-29_09:00:20 on domain   2:    5.30813 elapsed seconds
Timing for main: time 2016-08-29_09:00:22 on domain   3:    1.56875 elapsed seconds
Timing for main: time 2016-08-29_09:00:25 on domain   3:    1.64220 elapsed seconds
Timing for main: time 2016-08-29_09:00:25 on domain   2:    5.32196 elapsed seconds
Timing for main: time 2016-08-29_09:00:27 on domain   3:    1.56719 elapsed seconds
Timing for main: time 2016-08-29_09:00:30 on domain   3:    1.64057 elapsed seconds
Timing for main: time 2016-08-29_09:00:30 on domain   2:    5.31079 elapsed seconds
Timing for main: time 2016-08-29_09:00:30 on domain   1:   17.92826 elapsed seconds
Timing for main: time 2016-08-29_09:00:32 on domain   3:    1.56547 elapsed seconds
Timing for main: time 2016-08-29_09:00:35 on domain   3:    1.64189 elapsed seconds
Timing for main: time 2016-08-29_09:00:35 on domain   2:    5.28792 elapsed seconds
Timing for main: time 2016-08-29_09:00:37 on domain   3:    1.56490 elapsed seconds
Timing for main: time 2016-08-29_09:00:40 on domain   3:    1.64440 elapsed seconds
Timing for main: time 2016-08-29_09:00:40 on domain   2:    5.31734 elapsed seconds
Timing for main: time 2016-08-29_09:00:42 on domain   3:    1.56784 elapsed seconds
Timing for main: time 2016-08-29_09:00:45 on domain   3:    1.64391 elapsed seconds
Timing for main: time 2016-08-29_09:00:45 on domain   2:    5.32056 elapsed seconds
Timing for main: time 2016-08-29_09:00:45 on domain   1:   17.90917 elapsed seconds
Timing for main: time 2016-08-29_09:00:47 on domain   3:    1.57610 elapsed seconds
Timing for main: time 2016-08-29_09:00:50 on domain   3:    1.63740 elapsed seconds
Timing for main: time 2016-08-29_09:00:50 on domain   2:    5.28806 elapsed seconds
Timing for main: time 2016-08-29_09:00:52 on domain   3:    1.56065 elapsed seconds
Timing for main: time 2016-08-29_09:00:55 on domain   3:    1.64094 elapsed seconds
Timing for main: time 2016-08-29_09:00:55 on domain   2:    5.30860 elapsed seconds
Timing for main: time 2016-08-29_09:00:57 on domain   3:    1.56909 elapsed seconds
Timing for main: time 2016-08-29_09:01:00 on domain   3:    1.64709 elapsed seconds
Timing for main: time 2016-08-29_09:01:00 on domain   2:    5.32872 elapsed seconds
Timing for main: time 2016-08-29_09:01:00 on domain   1:   17.91347 elapsed seconds
Timing for Writing ISC2021_WRF_VALIDATION_OUTPUT_01_2016-08-29_09:01:00 for domain        1:    2.25673 elapsed seconds
Timing for Writing ISC2021_WRF_VALIDATION_OUTPUT_02_2016-08-29_09:01:00 for domain        2:    2.45816 elapsed seconds
Timing for Writing ISC2021_WRF_VALIDATION_OUTPUT_03_2016-08-29_09:01:00 for domain        3:    3.12685 elapsed seconds
Timing for main: time 2016-08-29_09:01:02 on domain   3:    4.69445 elapsed seconds
Timing for main: time 2016-08-29_09:01:05 on domain   3:    1.64649 elapsed seconds
Timing for main: time 2016-08-29_09:01:05 on domain   2:   10.85192 elapsed seconds
Timing for main: time 2016-08-29_09:01:07 on domain   3:    1.56429 elapsed seconds
Timing for main: time 2016-08-29_09:01:10 on domain   3:    1.64394 elapsed seconds
Timing for main: time 2016-08-29_09:01:10 on domain   2:    5.31048 elapsed seconds
Timing for main: time 2016-08-29_09:01:12 on domain   3:    1.56916 elapsed seconds
Timing for main: time 2016-08-29_09:01:15 on domain   3:    1.64260 elapsed seconds
Timing for main: time 2016-08-29_09:01:15 on domain   2:    5.32253 elapsed seconds
Timing for main: time 2016-08-29_09:01:15 on domain   1:   25.67387 elapsed seconds
Timing for main: time 2016-08-29_09:01:17 on domain   3:    1.56583 elapsed seconds
Timing for main: time 2016-08-29_09:01:20 on domain   3:    1.64208 elapsed seconds
Timing for main: time 2016-08-29_09:01:20 on domain   2:    5.28752 elapsed seconds
Timing for main: time 2016-08-29_09:01:22 on domain   3:    1.56857 elapsed seconds
Timing for main: time 2016-08-29_09:01:25 on domain   3:    1.65989 elapsed seconds
Timing for main: time 2016-08-29_09:01:25 on domain   2:    5.32625 elapsed seconds
Timing for main: time 2016-08-29_09:01:27 on domain   3:    1.56672 elapsed seconds
Timing for main: time 2016-08-29_09:01:30 on domain   3:    1.64555 elapsed seconds
Timing for main: time 2016-08-29_09:01:30 on domain   2:    5.31958 elapsed seconds
Timing for main: time 2016-08-29_09:01:30 on domain   1:   17.92056 elapsed seconds
Timing for main: time 2016-08-29_09:01:32 on domain   3:    1.57069 elapsed seconds
Timing for main: time 2016-08-29_09:01:35 on domain   3:    1.64406 elapsed seconds
Timing for main: time 2016-08-29_09:01:35 on domain   2:    5.30211 elapsed seconds
Timing for main: time 2016-08-29_09:01:37 on domain   3:    1.56539 elapsed seconds
Timing for main: time 2016-08-29_09:01:40 on domain   3:    1.64320 elapsed seconds
Timing for main: time 2016-08-29_09:01:40 on domain   2:    5.31211 elapsed seconds
Timing for main: time 2016-08-29_09:01:42 on domain   3:    1.57271 elapsed seconds
Timing for main: time 2016-08-29_09:01:45 on domain   3:    1.64811 elapsed seconds
Timing for main: time 2016-08-29_09:01:45 on domain   2:    5.32497 elapsed seconds
Timing for main: time 2016-08-29_09:01:45 on domain   1:   17.91156 elapsed seconds
Timing for main: time 2016-08-29_09:01:47 on domain   3:    1.57540 elapsed seconds
Timing for main: time 2016-08-29_09:01:50 on domain   3:    1.66476 elapsed seconds
Timing for main: time 2016-08-29_09:01:50 on domain   2:    5.32403 elapsed seconds
Timing for main: time 2016-08-29_09:01:52 on domain   3:    1.56921 elapsed seconds
Timing for main: time 2016-08-29_09:01:55 on domain   3:    1.65048 elapsed seconds
Timing for main: time 2016-08-29_09:01:55 on domain   2:    5.32425 elapsed seconds
Timing for main: time 2016-08-29_09:01:57 on domain   3:    1.57004 elapsed seconds
Timing for main: time 2016-08-29_09:02:00 on domain   3:    1.64069 elapsed seconds
Timing for main: time 2016-08-29_09:02:00 on domain   2:    5.31817 elapsed seconds
Timing for main: time 2016-08-29_09:02:00 on domain   1:   17.94903 elapsed seconds
Timing for Writing ISC2021_WRF_VALIDATION_OUTPUT_01_2016-08-29_09:02:00 for domain        1:    2.22345 elapsed seconds
Timing for Writing ISC2021_WRF_VALIDATION_OUTPUT_02_2016-08-29_09:02:00 for domain        2:    2.40368 elapsed seconds
Timing for Writing ISC2021_WRF_VALIDATION_OUTPUT_03_2016-08-29_09:02:00 for domain        3:    3.13797 elapsed seconds
Timing for main: time 2016-08-29_09:02:02 on domain   3:    4.70491 elapsed seconds
Timing for main: time 2016-08-29_09:02:05 on domain   3:    1.64195 elapsed seconds
Timing for main: time 2016-08-29_09:02:05 on domain   2:   10.81266 elapsed seconds
Timing for main: time 2016-08-29_09:02:07 on domain   3:    1.57292 elapsed seconds
Timing for main: time 2016-08-29_09:02:10 on domain   3:    1.64620 elapsed seconds
Timing for main: time 2016-08-29_09:02:10 on domain   2:    5.33062 elapsed seconds
Timing for main: time 2016-08-29_09:02:12 on domain   3:    1.56513 elapsed seconds
Timing for main: time 2016-08-29_09:02:15 on domain   3:    1.64669 elapsed seconds
Timing for main: time 2016-08-29_09:02:15 on domain   2:    5.31891 elapsed seconds
Timing for main: time 2016-08-29_09:02:15 on domain   1:   25.63174 elapsed seconds
Timing for main: time 2016-08-29_09:02:17 on domain   3:    1.57093 elapsed seconds
Timing for main: time 2016-08-29_09:02:20 on domain   3:    1.63443 elapsed seconds
Timing for main: time 2016-08-29_09:02:20 on domain   2:    5.28771 elapsed seconds
Timing for main: time 2016-08-29_09:02:22 on domain   3:    1.56523 elapsed seconds
Timing for main: time 2016-08-29_09:02:25 on domain   3:    1.65041 elapsed seconds
Timing for main: time 2016-08-29_09:02:25 on domain   2:    5.31740 elapsed seconds
Timing for main: time 2016-08-29_09:02:27 on domain   3:    1.56039 elapsed seconds
Timing for main: time 2016-08-29_09:02:30 on domain   3:    1.64206 elapsed seconds
Timing for main: time 2016-08-29_09:02:30 on domain   2:    5.29985 elapsed seconds
Timing for main: time 2016-08-29_09:02:30 on domain   1:   17.88767 elapsed seconds
Timing for main: time 2016-08-29_09:02:32 on domain   3:    1.56436 elapsed seconds
Timing for main: time 2016-08-29_09:02:35 on domain   3:    1.64687 elapsed seconds
Timing for main: time 2016-08-29_09:02:35 on domain   2:    5.29569 elapsed seconds
Timing for main: time 2016-08-29_09:02:37 on domain   3:    1.56840 elapsed seconds
Timing for main: time 2016-08-29_09:02:40 on domain   3:    1.65119 elapsed seconds
Timing for main: time 2016-08-29_09:02:40 on domain   2:    5.33215 elapsed seconds
Timing for main: time 2016-08-29_09:02:42 on domain   3:    1.56002 elapsed seconds
Timing for main: time 2016-08-29_09:02:45 on domain   3:    1.65660 elapsed seconds
Timing for main: time 2016-08-29_09:02:45 on domain   2:    5.33446 elapsed seconds
Timing for main: time 2016-08-29_09:02:45 on domain   1:   17.94309 elapsed seconds
Timing for main: time 2016-08-29_09:02:47 on domain   3:    1.56330 elapsed seconds
Timing for main: time 2016-08-29_09:02:50 on domain   3:    1.65190 elapsed seconds
Timing for main: time 2016-08-29_09:02:50 on domain   2:    5.29859 elapsed seconds
Timing for main: time 2016-08-29_09:02:52 on domain   3:    1.56594 elapsed seconds
Timing for main: time 2016-08-29_09:02:55 on domain   3:    1.65260 elapsed seconds
Timing for main: time 2016-08-29_09:02:55 on domain   2:    5.31027 elapsed seconds
Timing for main: time 2016-08-29_09:02:57 on domain   3:    1.56245 elapsed seconds
Timing for main: time 2016-08-29_09:03:00 on domain   3:    1.64789 elapsed seconds
Timing for main: time 2016-08-29_09:03:00 on domain   2:    5.31621 elapsed seconds
Timing for main: time 2016-08-29_09:03:00 on domain   1:   17.91685 elapsed seconds
Timing for Writing ISC2021_WRF_VALIDATION_OUTPUT_01_2016-08-29_09:03:00 for domain        1:    2.22210 elapsed seconds
Timing for Writing ISC2021_WRF_VALIDATION_OUTPUT_02_2016-08-29_09:03:00 for domain        2:    2.42782 elapsed seconds
Timing for Writing ISC2021_WRF_VALIDATION_OUTPUT_03_2016-08-29_09:03:00 for domain        3:    3.12775 elapsed seconds
Timing for main: time 2016-08-29_09:03:02 on domain   3:   11.84237 elapsed seconds
Timing for main: time 2016-08-29_09:03:05 on domain   3:    1.64036 elapsed seconds
Timing for main: time 2016-08-29_09:03:05 on domain   2:   22.76208 elapsed seconds
Timing for main: time 2016-08-29_09:03:07 on domain   3:    1.58564 elapsed seconds
Timing for main: time 2016-08-29_09:03:10 on domain   3:    1.66352 elapsed seconds
Timing for main: time 2016-08-29_09:03:10 on domain   2:    5.36980 elapsed seconds
Timing for main: time 2016-08-29_09:03:12 on domain   3:    1.56686 elapsed seconds
Timing for main: time 2016-08-29_09:03:15 on domain   3:    1.65833 elapsed seconds
Timing for main: time 2016-08-29_09:03:15 on domain   2:    5.34021 elapsed seconds
Timing for main: time 2016-08-29_09:03:15 on domain   1:   43.33838 elapsed seconds
Timing for main: time 2016-08-29_09:03:17 on domain   3:    1.56398 elapsed seconds
Timing for main: time 2016-08-29_09:03:20 on domain   3:    1.63989 elapsed seconds
Timing for main: time 2016-08-29_09:03:20 on domain   2:    5.28913 elapsed seconds
Timing for main: time 2016-08-29_09:03:22 on domain   3:    1.56052 elapsed seconds
Timing for main: time 2016-08-29_09:03:25 on domain   3:    1.64154 elapsed seconds
Timing for main: time 2016-08-29_09:03:25 on domain   2:    5.30383 elapsed seconds
Timing for main: time 2016-08-29_09:03:27 on domain   3:    1.57729 elapsed seconds
Timing for main: time 2016-08-29_09:03:30 on domain   3:    1.64162 elapsed seconds
Timing for main: time 2016-08-29_09:03:30 on domain   2:    5.32833 elapsed seconds
Timing for main: time 2016-08-29_09:03:30 on domain   1:   17.90912 elapsed seconds
Timing for main: time 2016-08-29_09:03:32 on domain   3:    1.56089 elapsed seconds
Timing for main: time 2016-08-29_09:03:35 on domain   3:    1.64734 elapsed seconds
Timing for main: time 2016-08-29_09:03:35 on domain   2:    5.28283 elapsed seconds
Timing for main: time 2016-08-29_09:03:37 on domain   3:    1.56166 elapsed seconds
Timing for main: time 2016-08-29_09:03:40 on domain   3:    1.64802 elapsed seconds
Timing for main: time 2016-08-29_09:03:40 on domain   2:    5.32590 elapsed seconds
Timing for main: time 2016-08-29_09:03:42 on domain   3:    1.58180 elapsed seconds
Timing for main: time 2016-08-29_09:03:45 on domain   3:    1.64875 elapsed seconds
Timing for main: time 2016-08-29_09:03:45 on domain   2:    5.34019 elapsed seconds
Timing for main: time 2016-08-29_09:03:45 on domain   1:   17.93346 elapsed seconds
Timing for main: time 2016-08-29_09:03:47 on domain   3:    1.57886 elapsed seconds
Timing for main: time 2016-08-29_09:03:50 on domain   3:    1.64116 elapsed seconds
Timing for main: time 2016-08-29_09:03:50 on domain   2:    5.30350 elapsed seconds
Timing for main: time 2016-08-29_09:03:52 on domain   3:    1.56964 elapsed seconds
Timing for main: time 2016-08-29_09:03:55 on domain   3:    1.64992 elapsed seconds
Timing for main: time 2016-08-29_09:03:55 on domain   2:    5.32168 elapsed seconds
Timing for main: time 2016-08-29_09:03:57 on domain   3:    1.55843 elapsed seconds
Timing for main: time 2016-08-29_09:04:00 on domain   3:    1.65696 elapsed seconds
Timing for main: time 2016-08-29_09:04:00 on domain   2:    5.32920 elapsed seconds
Timing for main: time 2016-08-29_09:04:00 on domain   1:   17.96963 elapsed seconds
Timing for Writing ISC2021_WRF_VALIDATION_OUTPUT_01_2016-08-29_09:04:00 for domain        1:    2.23251 elapsed seconds
Timing for Writing ISC2021_WRF_VALIDATION_OUTPUT_02_2016-08-29_09:04:00 for domain        2:    2.39825 elapsed seconds
Timing for Writing ISC2021_WRF_VALIDATION_OUTPUT_03_2016-08-29_09:04:00 for domain        3:    3.12804 elapsed seconds
Timing for main: time 2016-08-29_09:04:02 on domain   3:    4.69994 elapsed seconds
Timing for main: time 2016-08-29_09:04:05 on domain   3:    1.63541 elapsed seconds
Timing for main: time 2016-08-29_09:04:05 on domain   2:   10.79178 elapsed seconds
Timing for main: time 2016-08-29_09:04:07 on domain   3:    1.56359 elapsed seconds
Timing for main: time 2016-08-29_09:04:10 on domain   3:    1.64435 elapsed seconds
Timing for main: time 2016-08-29_09:04:10 on domain   2:    5.31028 elapsed seconds
Timing for main: time 2016-08-29_09:04:12 on domain   3:    1.56402 elapsed seconds
Timing for main: time 2016-08-29_09:04:15 on domain   3:    1.64797 elapsed seconds
Timing for main: time 2016-08-29_09:04:15 on domain   2:    5.33243 elapsed seconds
Timing for main: time 2016-08-29_09:04:15 on domain   1:   25.61265 elapsed seconds
Timing for main: time 2016-08-29_09:04:17 on domain   3:    1.56155 elapsed seconds
Timing for main: time 2016-08-29_09:04:20 on domain   3:    1.64713 elapsed seconds
Timing for main: time 2016-08-29_09:04:20 on domain   2:    5.29363 elapsed seconds
Timing for main: time 2016-08-29_09:04:22 on domain   3:    1.55976 elapsed seconds
Timing for main: time 2016-08-29_09:04:25 on domain   3:    1.64731 elapsed seconds
Timing for main: time 2016-08-29_09:04:25 on domain   2:    5.31904 elapsed seconds
Timing for main: time 2016-08-29_09:04:27 on domain   3:    1.56547 elapsed seconds
Timing for main: time 2016-08-29_09:04:30 on domain   3:    1.64489 elapsed seconds
Timing for main: time 2016-08-29_09:04:30 on domain   2:    5.31901 elapsed seconds
Timing for main: time 2016-08-29_09:04:30 on domain   1:   17.92996 elapsed seconds
Timing for main: time 2016-08-29_09:04:32 on domain   3:    1.56910 elapsed seconds
Timing for main: time 2016-08-29_09:04:35 on domain   3:    1.64416 elapsed seconds
Timing for main: time 2016-08-29_09:04:35 on domain   2:    5.31020 elapsed seconds
Timing for main: time 2016-08-29_09:04:37 on domain   3:    1.56424 elapsed seconds
Timing for main: time 2016-08-29_09:04:40 on domain   3:    1.64725 elapsed seconds
Timing for main: time 2016-08-29_09:04:40 on domain   2:    5.31551 elapsed seconds
Timing for main: time 2016-08-29_09:04:42 on domain   3:    1.56995 elapsed seconds
Timing for main: time 2016-08-29_09:04:45 on domain   3:    1.65059 elapsed seconds
Timing for main: time 2016-08-29_09:04:45 on domain   2:    5.33212 elapsed seconds
Timing for main: time 2016-08-29_09:04:45 on domain   1:   17.95015 elapsed seconds
Timing for main: time 2016-08-29_09:04:47 on domain   3:    1.56662 elapsed seconds
Timing for main: time 2016-08-29_09:04:50 on domain   3:    1.64492 elapsed seconds
Timing for main: time 2016-08-29_09:04:50 on domain   2:    5.30144 elapsed seconds
Timing for main: time 2016-08-29_09:04:52 on domain   3:    1.56685 elapsed seconds
Timing for main: time 2016-08-29_09:04:55 on domain   3:    1.64611 elapsed seconds
Timing for main: time 2016-08-29_09:04:55 on domain   2:    5.32360 elapsed seconds
Timing for main: time 2016-08-29_09:04:57 on domain   3:    1.56774 elapsed seconds
Timing for main: time 2016-08-29_09:05:00 on domain   3:    1.64765 elapsed seconds
Timing for main: time 2016-08-29_09:05:00 on domain   2:    5.32743 elapsed seconds
Timing for main: time 2016-08-29_09:05:00 on domain   1:   17.93705 elapsed seconds
Timing for Writing ISC2021_WRF_VALIDATION_OUTPUT_01_2016-08-29_09:05:00 for domain        1:    2.23067 elapsed seconds
Timing for Writing ISC2021_WRF_VALIDATION_OUTPUT_02_2016-08-29_09:05:00 for domain        2:    2.43910 elapsed seconds
Timing for Writing ISC2021_WRF_VALIDATION_OUTPUT_03_2016-08-29_09:05:00 for domain        3:    3.12305 elapsed seconds
Timing for main: time 2016-08-29_09:05:02 on domain   3:    4.68884 elapsed seconds
Timing for main: time 2016-08-29_09:05:05 on domain   3:    1.64109 elapsed seconds
Timing for main: time 2016-08-29_09:05:05 on domain   2:   10.82610 elapsed seconds
Timing for main: time 2016-08-29_09:05:07 on domain   3:    1.56444 elapsed seconds
Timing for main: time 2016-08-29_09:05:10 on domain   3:    1.64122 elapsed seconds
Timing for main: time 2016-08-29_09:05:10 on domain   2:    5.31021 elapsed seconds
Timing for main: time 2016-08-29_09:05:12 on domain   3:    1.56540 elapsed seconds
Timing for main: time 2016-08-29_09:05:15 on domain   3:    1.65778 elapsed seconds
Timing for main: time 2016-08-29_09:05:15 on domain   2:    5.33457 elapsed seconds
Timing for main: time 2016-08-29_09:05:15 on domain   1:   25.65804 elapsed seconds
Timing for main: time 2016-08-29_09:05:17 on domain   3:    1.56575 elapsed seconds
Timing for main: time 2016-08-29_09:05:20 on domain   3:    1.65768 elapsed seconds
Timing for main: time 2016-08-29_09:05:20 on domain   2:    5.30863 elapsed seconds
Timing for main: time 2016-08-29_09:05:22 on domain   3:    1.56346 elapsed seconds
Timing for main: time 2016-08-29_09:05:25 on domain   3:    1.64866 elapsed seconds
Timing for main: time 2016-08-29_09:05:25 on domain   2:    5.32158 elapsed seconds
Timing for main: time 2016-08-29_09:05:27 on domain   3:    1.56205 elapsed seconds
Timing for main: time 2016-08-29_09:05:30 on domain   3:    1.64644 elapsed seconds
Timing for main: time 2016-08-29_09:05:30 on domain   2:    5.32122 elapsed seconds
Timing for main: time 2016-08-29_09:05:30 on domain   1:   17.95120 elapsed seconds
Timing for main: time 2016-08-29_09:05:32 on domain   3:    1.56390 elapsed seconds
Timing for main: time 2016-08-29_09:05:35 on domain   3:    1.64442 elapsed seconds
Timing for main: time 2016-08-29_09:05:35 on domain   2:    5.28920 elapsed seconds
Timing for main: time 2016-08-29_09:05:37 on domain   3:    1.57443 elapsed seconds
Timing for main: time 2016-08-29_09:05:40 on domain   3:    1.64376 elapsed seconds
Timing for main: time 2016-08-29_09:05:40 on domain   2:    5.32380 elapsed seconds
Timing for main: time 2016-08-29_09:05:42 on domain   3:    1.56758 elapsed seconds
Timing for main: time 2016-08-29_09:05:45 on domain   3:    1.64181 elapsed seconds
Timing for main: time 2016-08-29_09:05:45 on domain   2:    5.32790 elapsed seconds
Timing for main: time 2016-08-29_09:05:45 on domain   1:   17.93158 elapsed seconds
Timing for main: time 2016-08-29_09:05:47 on domain   3:    1.55626 elapsed seconds
Timing for main: time 2016-08-29_09:05:50 on domain   3:    1.64265 elapsed seconds
Timing for main: time 2016-08-29_09:05:50 on domain   2:    5.28653 elapsed seconds
Timing for main: time 2016-08-29_09:05:52 on domain   3:    1.56875 elapsed seconds
Timing for main: time 2016-08-29_09:05:55 on domain   3:    1.63503 elapsed seconds
Timing for main: time 2016-08-29_09:05:55 on domain   2:    5.32460 elapsed seconds
Timing for main: time 2016-08-29_09:05:57 on domain   3:    1.56433 elapsed seconds
Timing for main: time 2016-08-29_09:06:00 on domain   3:    1.64624 elapsed seconds
Timing for main: time 2016-08-29_09:06:00 on domain   2:    5.31848 elapsed seconds
Timing for main: time 2016-08-29_09:06:00 on domain   1:   17.91808 elapsed seconds
Timing for main: time 2016-08-29_09:06:02 on domain   3:    8.72377 elapsed seconds
Timing for main: time 2016-08-29_09:06:05 on domain   3:    1.64011 elapsed seconds
Timing for main: time 2016-08-29_09:06:05 on domain   2:   17.22147 elapsed seconds
Timing for main: time 2016-08-29_09:06:07 on domain   3:    1.56632 elapsed seconds
Timing for main: time 2016-08-29_09:06:10 on domain   3:    1.64903 elapsed seconds
Timing for main: time 2016-08-29_09:06:10 on domain   2:    5.32919 elapsed seconds
Timing for main: time 2016-08-29_09:06:12 on domain   3:    1.56657 elapsed seconds
Timing for main: time 2016-08-29_09:06:15 on domain   3:    1.64131 elapsed seconds
Timing for main: time 2016-08-29_09:06:15 on domain   2:    5.31894 elapsed seconds
Timing for main: time 2016-08-29_09:06:15 on domain   1:   35.57804 elapsed seconds
Timing for main: time 2016-08-29_09:06:17 on domain   3:    1.55633 elapsed seconds
Timing for main: time 2016-08-29_09:06:20 on domain   3:    1.65017 elapsed seconds
Timing for main: time 2016-08-29_09:06:20 on domain   2:    5.29626 elapsed seconds
Timing for main: time 2016-08-29_09:06:22 on domain   3:    1.55383 elapsed seconds
Timing for main: time 2016-08-29_09:06:25 on domain   3:    1.64377 elapsed seconds
Timing for main: time 2016-08-29_09:06:25 on domain   2:    5.31367 elapsed seconds
Timing for main: time 2016-08-29_09:06:27 on domain   3:    1.57476 elapsed seconds
Timing for main: time 2016-08-29_09:06:30 on domain   3:    1.64529 elapsed seconds
Timing for main: time 2016-08-29_09:06:30 on domain   2:    5.33085 elapsed seconds
Timing for main: time 2016-08-29_09:06:30 on domain   1:   17.94088 elapsed seconds
Timing for main: time 2016-08-29_09:06:32 on domain   3:    1.57110 elapsed seconds
Timing for main: time 2016-08-29_09:06:35 on domain   3:    1.64689 elapsed seconds
Timing for main: time 2016-08-29_09:06:35 on domain   2:    5.30674 elapsed seconds
Timing for main: time 2016-08-29_09:06:37 on domain   3:    1.56850 elapsed seconds
Timing for main: time 2016-08-29_09:06:40 on domain   3:    1.64450 elapsed seconds
Timing for main: time 2016-08-29_09:06:40 on domain   2:    5.32310 elapsed seconds
Timing for main: time 2016-08-29_09:06:42 on domain   3:    1.56719 elapsed seconds
Timing for main: time 2016-08-29_09:06:45 on domain   3:    1.64677 elapsed seconds
Timing for main: time 2016-08-29_09:06:45 on domain   2:    5.31900 elapsed seconds
Timing for main: time 2016-08-29_09:06:45 on domain   1:   17.93627 elapsed seconds
Timing for main: time 2016-08-29_09:06:47 on domain   3:    1.57176 elapsed seconds
Timing for main: time 2016-08-29_09:06:50 on domain   3:    1.64555 elapsed seconds
Timing for main: time 2016-08-29_09:06:50 on domain   2:    5.30407 elapsed seconds
Timing for main: time 2016-08-29_09:06:52 on domain   3:    1.57284 elapsed seconds
Timing for main: time 2016-08-29_09:06:55 on domain   3:    1.64585 elapsed seconds
Timing for main: time 2016-08-29_09:06:55 on domain   2:    5.32712 elapsed seconds
Timing for main: time 2016-08-29_09:06:57 on domain   3:    1.57113 elapsed seconds
Timing for main: time 2016-08-29_09:07:00 on domain   3:    1.64618 elapsed seconds
Timing for main: time 2016-08-29_09:07:00 on domain   2:    5.32674 elapsed seconds
Timing for main: time 2016-08-29_09:07:00 on domain   1:   17.96214 elapsed seconds
Timing for main: time 2016-08-29_09:07:02 on domain   3:    1.57134 elapsed seconds
Timing for main: time 2016-08-29_09:07:05 on domain   3:    1.63933 elapsed seconds
Timing for main: time 2016-08-29_09:07:05 on domain   2:    5.29750 elapsed seconds
Timing for main: time 2016-08-29_09:07:07 on domain   3:    1.55846 elapsed seconds
Timing for main: time 2016-08-29_09:07:10 on domain   3:    1.64610 elapsed seconds
Timing for main: time 2016-08-29_09:07:10 on domain   2:    5.31569 elapsed seconds
Timing for main: time 2016-08-29_09:07:12 on domain   3:    1.56518 elapsed seconds
Timing for main: time 2016-08-29_09:07:15 on domain   3:    1.63889 elapsed seconds
Timing for main: time 2016-08-29_09:07:15 on domain   2:    5.31358 elapsed seconds
Timing for main: time 2016-08-29_09:07:15 on domain   1:   17.91040 elapsed seconds
Timing for main: time 2016-08-29_09:07:17 on domain   3:    1.57559 elapsed seconds
Timing for main: time 2016-08-29_09:07:20 on domain   3:    1.64699 elapsed seconds
Timing for main: time 2016-08-29_09:07:20 on domain   2:    5.30180 elapsed seconds
Timing for main: time 2016-08-29_09:07:22 on domain   3:    1.56189 elapsed seconds
Timing for main: time 2016-08-29_09:07:25 on domain   3:    1.65540 elapsed seconds
Timing for main: time 2016-08-29_09:07:25 on domain   2:    5.30446 elapsed seconds
Timing for main: time 2016-08-29_09:07:27 on domain   3:    1.57010 elapsed seconds
Timing for main: time 2016-08-29_09:07:30 on domain   3:    1.64306 elapsed seconds
Timing for main: time 2016-08-29_09:07:30 on domain   2:    5.31133 elapsed seconds
Timing for main: time 2016-08-29_09:07:30 on domain   1:   17.90408 elapsed seconds
Timing for main: time 2016-08-29_09:07:32 on domain   3:    1.55921 elapsed seconds
Timing for main: time 2016-08-29_09:07:35 on domain   3:    1.63989 elapsed seconds
Timing for main: time 2016-08-29_09:07:35 on domain   2:    5.30540 elapsed seconds
Timing for main: time 2016-08-29_09:07:37 on domain   3:    1.56955 elapsed seconds
Timing for main: time 2016-08-29_09:07:40 on domain   3:    1.64257 elapsed seconds
Timing for main: time 2016-08-29_09:07:40 on domain   2:    5.31409 elapsed seconds
Timing for main: time 2016-08-29_09:07:42 on domain   3:    1.56235 elapsed seconds
Timing for main: time 2016-08-29_09:07:45 on domain   3:    1.64556 elapsed seconds
Timing for main: time 2016-08-29_09:07:45 on domain   2:    5.33007 elapsed seconds
Timing for main: time 2016-08-29_09:07:45 on domain   1:   17.95491 elapsed seconds
Timing for main: time 2016-08-29_09:07:47 on domain   3:    1.56310 elapsed seconds
Timing for main: time 2016-08-29_09:07:50 on domain   3:    1.64564 elapsed seconds
Timing for main: time 2016-08-29_09:07:50 on domain   2:    5.29363 elapsed seconds
Timing for main: time 2016-08-29_09:07:52 on domain   3:    1.57031 elapsed seconds
Timing for main: time 2016-08-29_09:07:55 on domain   3:    1.64812 elapsed seconds
Timing for main: time 2016-08-29_09:07:55 on domain   2:    5.32644 elapsed seconds
Timing for main: time 2016-08-29_09:07:57 on domain   3:    1.56874 elapsed seconds
Timing for main: time 2016-08-29_09:08:00 on domain   3:    1.64880 elapsed seconds
Timing for main: time 2016-08-29_09:08:00 on domain   2:    5.31426 elapsed seconds
Timing for main: time 2016-08-29_09:08:00 on domain   1:   17.92617 elapsed seconds
Timing for main: time 2016-08-29_09:08:02 on domain   3:    1.56364 elapsed seconds
Timing for main: time 2016-08-29_09:08:05 on domain   3:    1.64452 elapsed seconds
Timing for main: time 2016-08-29_09:08:05 on domain   2:    5.28025 elapsed seconds
Timing for main: time 2016-08-29_09:08:07 on domain   3:    1.56302 elapsed seconds
Timing for main: time 2016-08-29_09:08:10 on domain   3:    1.64419 elapsed seconds
Timing for main: time 2016-08-29_09:08:10 on domain   2:    5.31221 elapsed seconds
Timing for main: time 2016-08-29_09:08:12 on domain   3:    1.56757 elapsed seconds
Timing for main: time 2016-08-29_09:08:15 on domain   3:    1.63866 elapsed seconds
Timing for main: time 2016-08-29_09:08:15 on domain   2:    5.31302 elapsed seconds
Timing for main: time 2016-08-29_09:08:15 on domain   1:   17.89741 elapsed seconds
Timing for main: time 2016-08-29_09:08:17 on domain   3:    1.57053 elapsed seconds
Timing for main: time 2016-08-29_09:08:20 on domain   3:    1.64272 elapsed seconds
Timing for main: time 2016-08-29_09:08:20 on domain   2:    5.30501 elapsed seconds
Timing for main: time 2016-08-29_09:08:22 on domain   3:    1.56769 elapsed seconds
Timing for main: time 2016-08-29_09:08:25 on domain   3:    1.64471 elapsed seconds
Timing for main: time 2016-08-29_09:08:25 on domain   2:    5.32128 elapsed seconds
Timing for main: time 2016-08-29_09:08:27 on domain   3:    1.57315 elapsed seconds
Timing for main: time 2016-08-29_09:08:30 on domain   3:    1.64532 elapsed seconds
Timing for main: time 2016-08-29_09:08:30 on domain   2:    5.33968 elapsed seconds
Timing for main: time 2016-08-29_09:08:30 on domain   1:   17.96771 elapsed seconds
Timing for main: time 2016-08-29_09:08:32 on domain   3:    1.57949 elapsed seconds
Timing for main: time 2016-08-29_09:08:35 on domain   3:    1.63943 elapsed seconds
Timing for main: time 2016-08-29_09:08:35 on domain   2:    5.30843 elapsed seconds
Timing for main: time 2016-08-29_09:08:37 on domain   3:    1.57711 elapsed seconds
Timing for main: time 2016-08-29_09:08:40 on domain   3:    1.64351 elapsed seconds
Timing for main: time 2016-08-29_09:08:40 on domain   2:    5.33412 elapsed seconds
Timing for main: time 2016-08-29_09:08:42 on domain   3:    1.57284 elapsed seconds
Timing for main: time 2016-08-29_09:08:45 on domain   3:    1.65051 elapsed seconds
Timing for main: time 2016-08-29_09:08:45 on domain   2:    5.33066 elapsed seconds
Timing for main: time 2016-08-29_09:08:45 on domain   1:   17.96603 elapsed seconds
Timing for main: time 2016-08-29_09:08:47 on domain   3:    1.57529 elapsed seconds
Timing for main: time 2016-08-29_09:08:50 on domain   3:    1.63938 elapsed seconds
Timing for main: time 2016-08-29_09:08:50 on domain   2:    5.29820 elapsed seconds
Timing for main: time 2016-08-29_09:08:52 on domain   3:    1.56395 elapsed seconds
Timing for main: time 2016-08-29_09:08:55 on domain   3:    1.64168 elapsed seconds
Timing for main: time 2016-08-29_09:08:55 on domain   2:    5.31154 elapsed seconds
Timing for main: time 2016-08-29_09:08:57 on domain   3:    1.56803 elapsed seconds
Timing for main: time 2016-08-29_09:09:00 on domain   3:    1.65035 elapsed seconds
Timing for main: time 2016-08-29_09:09:00 on domain   2:    5.32189 elapsed seconds
Timing for main: time 2016-08-29_09:09:00 on domain   1:   17.92104 elapsed seconds
Timing for main: time 2016-08-29_09:09:02 on domain   3:    8.74437 elapsed seconds
Timing for main: time 2016-08-29_09:09:05 on domain   3:    1.64069 elapsed seconds
Timing for main: time 2016-08-29_09:09:05 on domain   2:   17.23602 elapsed seconds
Timing for main: time 2016-08-29_09:09:07 on domain   3:    1.57175 elapsed seconds
Timing for main: time 2016-08-29_09:09:10 on domain   3:    1.65131 elapsed seconds
Timing for main: time 2016-08-29_09:09:10 on domain   2:    5.33409 elapsed seconds
Timing for main: time 2016-08-29_09:09:12 on domain   3:    1.56727 elapsed seconds
Timing for main: time 2016-08-29_09:09:15 on domain   3:    1.65128 elapsed seconds
Timing for main: time 2016-08-29_09:09:15 on domain   2:    5.32567 elapsed seconds
Timing for main: time 2016-08-29_09:09:15 on domain   1:   35.63720 elapsed seconds
Timing for main: time 2016-08-29_09:09:17 on domain   3:    1.56308 elapsed seconds
Timing for main: time 2016-08-29_09:09:20 on domain   3:    1.65270 elapsed seconds
Timing for main: time 2016-08-29_09:09:20 on domain   2:    5.28665 elapsed seconds
Timing for main: time 2016-08-29_09:09:22 on domain   3:    1.56852 elapsed seconds
Timing for main: time 2016-08-29_09:09:25 on domain   3:    1.64518 elapsed seconds
Timing for main: time 2016-08-29_09:09:25 on domain   2:    5.31742 elapsed seconds
Timing for main: time 2016-08-29_09:09:27 on domain   3:    1.56073 elapsed seconds
Timing for main: time 2016-08-29_09:09:30 on domain   3:    1.64561 elapsed seconds
Timing for main: time 2016-08-29_09:09:30 on domain   2:    5.31704 elapsed seconds
Timing for main: time 2016-08-29_09:09:30 on domain   1:   17.90814 elapsed seconds
Timing for main: time 2016-08-29_09:09:32 on domain   3:    1.56202 elapsed seconds
Timing for main: time 2016-08-29_09:09:35 on domain   3:    1.65563 elapsed seconds
Timing for main: time 2016-08-29_09:09:35 on domain   2:    5.30320 elapsed seconds
Timing for main: time 2016-08-29_09:09:37 on domain   3:    1.56680 elapsed seconds
Timing for main: time 2016-08-29_09:09:40 on domain   3:    1.64424 elapsed seconds
Timing for main: time 2016-08-29_09:09:40 on domain   2:    5.31828 elapsed seconds
Timing for main: time 2016-08-29_09:09:42 on domain   3:    1.56889 elapsed seconds
Timing for main: time 2016-08-29_09:09:45 on domain   3:    1.63714 elapsed seconds
Timing for main: time 2016-08-29_09:09:45 on domain   2:    5.32174 elapsed seconds
Timing for main: time 2016-08-29_09:09:45 on domain   1:   17.93536 elapsed seconds
Timing for main: time 2016-08-29_09:09:47 on domain   3:    1.56830 elapsed seconds
Timing for main: time 2016-08-29_09:09:50 on domain   3:    1.65588 elapsed seconds
Timing for main: time 2016-08-29_09:09:50 on domain   2:    5.29190 elapsed seconds
Timing for main: time 2016-08-29_09:09:52 on domain   3:    1.57992 elapsed seconds
Timing for main: time 2016-08-29_09:09:55 on domain   3:    1.65080 elapsed seconds
Timing for main: time 2016-08-29_09:09:55 on domain   2:    5.34400 elapsed seconds
Timing for main: time 2016-08-29_09:09:57 on domain   3:    1.57654 elapsed seconds
Timing for main: time 2016-08-29_09:10:00 on domain   3:    1.64796 elapsed seconds
Timing for main: time 2016-08-29_09:10:00 on domain   2:    5.33447 elapsed seconds
Timing for main: time 2016-08-29_09:10:00 on domain   1:   17.99260 elapsed seconds
Timing for main: time 2016-08-29_09:10:02 on domain   3:    1.56873 elapsed seconds
Timing for main: time 2016-08-29_09:10:05 on domain   3:    1.64492 elapsed seconds
Timing for main: time 2016-08-29_09:10:05 on domain   2:    5.30129 elapsed seconds
Timing for main: time 2016-08-29_09:10:07 on domain   3:    1.56528 elapsed seconds
Timing for main: time 2016-08-29_09:10:10 on domain   3:    1.64235 elapsed seconds
Timing for main: time 2016-08-29_09:10:10 on domain   2:    5.31419 elapsed seconds
Timing for main: time 2016-08-29_09:10:12 on domain   3:    1.56501 elapsed seconds
Timing for main: time 2016-08-29_09:10:15 on domain   3:    1.64265 elapsed seconds
Timing for main: time 2016-08-29_09:10:15 on domain   2:    5.32284 elapsed seconds
Timing for main: time 2016-08-29_09:10:15 on domain   1:   17.92932 elapsed seconds
Timing for main: time 2016-08-29_09:10:17 on domain   3:    1.54849 elapsed seconds
Timing for main: time 2016-08-29_09:10:20 on domain   3:    1.64543 elapsed seconds
Timing for main: time 2016-08-29_09:10:20 on domain   2:    5.30412 elapsed seconds
Timing for main: time 2016-08-29_09:10:22 on domain   3:    1.55531 elapsed seconds
Timing for main: time 2016-08-29_09:10:25 on domain   3:    1.64428 elapsed seconds
Timing for main: time 2016-08-29_09:10:25 on domain   2:    5.31021 elapsed seconds
Timing for main: time 2016-08-29_09:10:27 on domain   3:    1.57147 elapsed seconds
Timing for main: time 2016-08-29_09:10:30 on domain   3:    1.64034 elapsed seconds
Timing for main: time 2016-08-29_09:10:30 on domain   2:    5.32174 elapsed seconds
Timing for main: time 2016-08-29_09:10:30 on domain   1:   17.93423 elapsed seconds
Timing for main: time 2016-08-29_09:10:32 on domain   3:    1.57580 elapsed seconds
Timing for main: time 2016-08-29_09:10:35 on domain   3:    1.63698 elapsed seconds
Timing for main: time 2016-08-29_09:10:35 on domain   2:    5.29144 elapsed seconds
Timing for main: time 2016-08-29_09:10:37 on domain   3:    1.56805 elapsed seconds
Timing for main: time 2016-08-29_09:10:40 on domain   3:    1.64743 elapsed seconds
Timing for main: time 2016-08-29_09:10:40 on domain   2:    5.31808 elapsed seconds
Timing for main: time 2016-08-29_09:10:42 on domain   3:    1.57067 elapsed seconds
Timing for main: time 2016-08-29_09:10:45 on domain   3:    1.64804 elapsed seconds
Timing for main: time 2016-08-29_09:10:45 on domain   2:    5.32377 elapsed seconds
Timing for main: time 2016-08-29_09:10:45 on domain   1:   17.94283 elapsed seconds
Timing for main: time 2016-08-29_09:10:47 on domain   3:    1.56545 elapsed seconds
Timing for main: time 2016-08-29_09:10:50 on domain   3:    1.64619 elapsed seconds
Timing for main: time 2016-08-29_09:10:50 on domain   2:    5.29887 elapsed seconds
Timing for main: time 2016-08-29_09:10:52 on domain   3:    1.56536 elapsed seconds
Timing for main: time 2016-08-29_09:10:55 on domain   3:    1.64745 elapsed seconds
Timing for main: time 2016-08-29_09:10:55 on domain   2:    5.32127 elapsed seconds
Timing for main: time 2016-08-29_09:10:57 on domain   3:    1.56363 elapsed seconds
Timing for main: time 2016-08-29_09:11:00 on domain   3:    1.64573 elapsed seconds
Timing for main: time 2016-08-29_09:11:00 on domain   2:    5.31506 elapsed seconds
Timing for main: time 2016-08-29_09:11:00 on domain   1:   17.91978 elapsed seconds
Timing for main: time 2016-08-29_09:11:02 on domain   3:    1.56771 elapsed seconds
Timing for main: time 2016-08-29_09:11:05 on domain   3:    1.64704 elapsed seconds
Timing for main: time 2016-08-29_09:11:05 on domain   2:    5.29619 elapsed seconds
Timing for main: time 2016-08-29_09:11:07 on domain   3:    1.58848 elapsed seconds
Timing for main: time 2016-08-29_09:11:10 on domain   3:    1.65046 elapsed seconds
Timing for main: time 2016-08-29_09:11:10 on domain   2:    5.34326 elapsed seconds
Timing for main: time 2016-08-29_09:11:12 on domain   3:    1.56157 elapsed seconds
Timing for main: time 2016-08-29_09:11:15 on domain   3:    1.64662 elapsed seconds
Timing for main: time 2016-08-29_09:11:15 on domain   2:    5.31361 elapsed seconds
Timing for main: time 2016-08-29_09:11:15 on domain   1:   17.94738 elapsed seconds
Timing for main: time 2016-08-29_09:11:17 on domain   3:    1.56672 elapsed seconds
Timing for main: time 2016-08-29_09:11:20 on domain   3:    1.64664 elapsed seconds
Timing for main: time 2016-08-29_09:11:20 on domain   2:    5.30038 elapsed seconds
Timing for main: time 2016-08-29_09:11:22 on domain   3:    1.56939 elapsed seconds
Timing for main: time 2016-08-29_09:11:25 on domain   3:    1.64564 elapsed seconds
Timing for main: time 2016-08-29_09:11:25 on domain   2:    5.31831 elapsed seconds
Timing for main: time 2016-08-29_09:11:27 on domain   3:    1.57296 elapsed seconds
Timing for main: time 2016-08-29_09:11:30 on domain   3:    1.64075 elapsed seconds
Timing for main: time 2016-08-29_09:11:30 on domain   2:    5.33246 elapsed seconds
Timing for main: time 2016-08-29_09:11:30 on domain   1:   17.95411 elapsed seconds
Timing for main: time 2016-08-29_09:11:32 on domain   3:    1.59677 elapsed seconds
Timing for main: time 2016-08-29_09:11:35 on domain   3:    1.65103 elapsed seconds
Timing for main: time 2016-08-29_09:11:35 on domain   2:    5.34407 elapsed seconds
Timing for main: time 2016-08-29_09:11:37 on domain   3:    1.58055 elapsed seconds
Timing for main: time 2016-08-29_09:11:40 on domain   3:    1.64653 elapsed seconds
Timing for main: time 2016-08-29_09:11:40 on domain   2:    5.33187 elapsed seconds
Timing for main: time 2016-08-29_09:11:42 on domain   3:    1.57157 elapsed seconds
Timing for main: time 2016-08-29_09:11:45 on domain   3:    1.65875 elapsed seconds
Timing for main: time 2016-08-29_09:11:45 on domain   2:    5.33097 elapsed seconds
Timing for main: time 2016-08-29_09:11:45 on domain   1:   17.99850 elapsed seconds
Timing for main: time 2016-08-29_09:11:47 on domain   3:    1.56246 elapsed seconds
Timing for main: time 2016-08-29_09:11:50 on domain   3:    1.64110 elapsed seconds
Timing for main: time 2016-08-29_09:11:50 on domain   2:    5.28334 elapsed seconds
Timing for main: time 2016-08-29_09:11:52 on domain   3:    1.56207 elapsed seconds
Timing for main: time 2016-08-29_09:11:55 on domain   3:    1.63718 elapsed seconds
Timing for main: time 2016-08-29_09:11:55 on domain   2:    5.31014 elapsed seconds
Timing for main: time 2016-08-29_09:11:57 on domain   3:    1.57146 elapsed seconds
Timing for main: time 2016-08-29_09:12:00 on domain   3:    1.64153 elapsed seconds
Timing for main: time 2016-08-29_09:12:00 on domain   2:    5.31302 elapsed seconds
Timing for main: time 2016-08-29_09:12:00 on domain   1:   17.89643 elapsed seconds
Timing for main: time 2016-08-29_09:12:02 on domain   3:    8.71947 elapsed seconds
Timing for main: time 2016-08-29_09:12:05 on domain   3:    1.63790 elapsed seconds
Timing for main: time 2016-08-29_09:12:05 on domain   2:   17.19248 elapsed seconds
Timing for main: time 2016-08-29_09:12:07 on domain   3:    1.56942 elapsed seconds
Timing for main: time 2016-08-29_09:12:10 on domain   3:    1.65642 elapsed seconds
Timing for main: time 2016-08-29_09:12:10 on domain   2:    5.33507 elapsed seconds
Timing for main: time 2016-08-29_09:12:12 on domain   3:    1.56929 elapsed seconds
Timing for main: time 2016-08-29_09:12:15 on domain   3:    1.65249 elapsed seconds
Timing for main: time 2016-08-29_09:12:15 on domain   2:    5.31698 elapsed seconds
Timing for main: time 2016-08-29_09:12:15 on domain   1:   35.57065 elapsed seconds
Timing for main: time 2016-08-29_09:12:17 on domain   3:    1.56672 elapsed seconds
Timing for main: time 2016-08-29_09:12:20 on domain   3:    1.65419 elapsed seconds
Timing for main: time 2016-08-29_09:12:20 on domain   2:    5.30275 elapsed seconds
Timing for main: time 2016-08-29_09:12:22 on domain   3:    1.56731 elapsed seconds
Timing for main: time 2016-08-29_09:12:25 on domain   3:    1.64246 elapsed seconds
Timing for main: time 2016-08-29_09:12:25 on domain   2:    5.31309 elapsed seconds
Timing for main: time 2016-08-29_09:12:27 on domain   3:    1.59072 elapsed seconds
Timing for main: time 2016-08-29_09:12:30 on domain   3:    1.65057 elapsed seconds
Timing for main: time 2016-08-29_09:12:30 on domain   2:    5.33732 elapsed seconds
Timing for main: time 2016-08-29_09:12:30 on domain   1:   17.95329 elapsed seconds
Timing for main: time 2016-08-29_09:12:32 on domain   3:    1.56630 elapsed seconds
Timing for main: time 2016-08-29_09:12:35 on domain   3:    1.64205 elapsed seconds
Timing for main: time 2016-08-29_09:12:35 on domain   2:    5.30676 elapsed seconds
Timing for main: time 2016-08-29_09:12:37 on domain   3:    1.57253 elapsed seconds
Timing for main: time 2016-08-29_09:12:40 on domain   3:    1.65090 elapsed seconds
Timing for main: time 2016-08-29_09:12:40 on domain   2:    5.33198 elapsed seconds
Timing for main: time 2016-08-29_09:12:42 on domain   3:    1.56659 elapsed seconds
Timing for main: time 2016-08-29_09:12:45 on domain   3:    1.64542 elapsed seconds
Timing for main: time 2016-08-29_09:12:45 on domain   2:    5.31384 elapsed seconds
Timing for main: time 2016-08-29_09:12:45 on domain   1:   17.94689 elapsed seconds
Timing for main: time 2016-08-29_09:12:47 on domain   3:    1.56988 elapsed seconds
Timing for main: time 2016-08-29_09:12:50 on domain   3:    1.64335 elapsed seconds
Timing for main: time 2016-08-29_09:12:50 on domain   2:    5.31135 elapsed seconds
Timing for main: time 2016-08-29_09:12:52 on domain   3:    1.57238 elapsed seconds
Timing for main: time 2016-08-29_09:12:55 on domain   3:    1.65087 elapsed seconds
Timing for main: time 2016-08-29_09:12:55 on domain   2:    5.32697 elapsed seconds
Timing for main: time 2016-08-29_09:12:57 on domain   3:    1.58217 elapsed seconds
Timing for main: time 2016-08-29_09:13:00 on domain   3:    1.64217 elapsed seconds
Timing for main: time 2016-08-29_09:13:00 on domain   2:    5.34064 elapsed seconds
Timing for main: time 2016-08-29_09:13:00 on domain   1:   17.98138 elapsed seconds
Timing for main: time 2016-08-29_09:13:02 on domain   3:    1.57221 elapsed seconds
Timing for main: time 2016-08-29_09:13:05 on domain   3:    1.64548 elapsed seconds
Timing for main: time 2016-08-29_09:13:05 on domain   2:    5.30234 elapsed seconds
Timing for main: time 2016-08-29_09:13:07 on domain   3:    1.56709 elapsed seconds
Timing for main: time 2016-08-29_09:13:10 on domain   3:    1.64556 elapsed seconds
Timing for main: time 2016-08-29_09:13:10 on domain   2:    5.32274 elapsed seconds
Timing for main: time 2016-08-29_09:13:12 on domain   3:    1.57741 elapsed seconds
Timing for main: time 2016-08-29_09:13:15 on domain   3:    1.64472 elapsed seconds
Timing for main: time 2016-08-29_09:13:15 on domain   2:    5.33368 elapsed seconds
Timing for main: time 2016-08-29_09:13:15 on domain   1:   17.95984 elapsed seconds
Timing for main: time 2016-08-29_09:13:17 on domain   3:    1.56854 elapsed seconds
Timing for main: time 2016-08-29_09:13:20 on domain   3:    1.64007 elapsed seconds
Timing for main: time 2016-08-29_09:13:20 on domain   2:    5.28915 elapsed seconds
Timing for main: time 2016-08-29_09:13:22 on domain   3:    1.58103 elapsed seconds
Timing for main: time 2016-08-29_09:13:25 on domain   3:    1.64509 elapsed seconds
Timing for main: time 2016-08-29_09:13:25 on domain   2:    5.33378 elapsed seconds
Timing for main: time 2016-08-29_09:13:27 on domain   3:    1.56907 elapsed seconds
Timing for main: time 2016-08-29_09:13:30 on domain   3:    1.65112 elapsed seconds
Timing for main: time 2016-08-29_09:13:30 on domain   2:    5.32679 elapsed seconds
Timing for main: time 2016-08-29_09:13:30 on domain   1:   17.94529 elapsed seconds
Timing for main: time 2016-08-29_09:13:32 on domain   3:    1.56406 elapsed seconds
Timing for main: time 2016-08-29_09:13:35 on domain   3:    1.64303 elapsed seconds
Timing for main: time 2016-08-29_09:13:35 on domain   2:    5.28926 elapsed seconds
Timing for main: time 2016-08-29_09:13:37 on domain   3:    1.57518 elapsed seconds
Timing for main: time 2016-08-29_09:13:40 on domain   3:    1.64254 elapsed seconds
Timing for main: time 2016-08-29_09:13:40 on domain   2:    5.32467 elapsed seconds
Timing for main: time 2016-08-29_09:13:42 on domain   3:    1.56700 elapsed seconds
Timing for main: time 2016-08-29_09:13:45 on domain   3:    1.64669 elapsed seconds
Timing for main: time 2016-08-29_09:13:45 on domain   2:    5.32002 elapsed seconds
Timing for main: time 2016-08-29_09:13:45 on domain   1:   17.92254 elapsed seconds
Timing for main: time 2016-08-29_09:13:47 on domain   3:    1.57196 elapsed seconds
Timing for main: time 2016-08-29_09:13:50 on domain   3:    1.66303 elapsed seconds
Timing for main: time 2016-08-29_09:13:50 on domain   2:    5.31391 elapsed seconds
Timing for main: time 2016-08-29_09:13:52 on domain   3:    1.56507 elapsed seconds
Timing for main: time 2016-08-29_09:13:55 on domain   3:    1.64534 elapsed seconds
Timing for main: time 2016-08-29_09:13:55 on domain   2:    5.34276 elapsed seconds
Timing for main: time 2016-08-29_09:13:57 on domain   3:    1.58246 elapsed seconds
Timing for main: time 2016-08-29_09:14:00 on domain   3:    1.64802 elapsed seconds
Timing for main: time 2016-08-29_09:14:00 on domain   2:    5.33251 elapsed seconds
Timing for main: time 2016-08-29_09:14:00 on domain   1:   18.02199 elapsed seconds
Timing for main: time 2016-08-29_09:14:02 on domain   3:    1.57042 elapsed seconds
Timing for main: time 2016-08-29_09:14:05 on domain   3:    1.64087 elapsed seconds
Timing for main: time 2016-08-29_09:14:05 on domain   2:    5.29362 elapsed seconds
Timing for main: time 2016-08-29_09:14:07 on domain   3:    1.57186 elapsed seconds
Timing for main: time 2016-08-29_09:14:10 on domain   3:    1.64095 elapsed seconds
Timing for main: time 2016-08-29_09:14:10 on domain   2:    5.31274 elapsed seconds
Timing for main: time 2016-08-29_09:14:12 on domain   3:    1.56797 elapsed seconds
Timing for main: time 2016-08-29_09:14:15 on domain   3:    1.64685 elapsed seconds
Timing for main: time 2016-08-29_09:14:15 on domain   2:    5.31399 elapsed seconds
Timing for main: time 2016-08-29_09:14:15 on domain   1:   17.92722 elapsed seconds
Timing for main: time 2016-08-29_09:14:17 on domain   3:    1.56192 elapsed seconds
Timing for main: time 2016-08-29_09:14:20 on domain   3:    1.64151 elapsed seconds
Timing for main: time 2016-08-29_09:14:20 on domain   2:    5.28402 elapsed seconds
Timing for main: time 2016-08-29_09:14:22 on domain   3:    1.56499 elapsed seconds
Timing for main: time 2016-08-29_09:14:25 on domain   3:    1.64133 elapsed seconds
Timing for main: time 2016-08-29_09:14:25 on domain   2:    5.30845 elapsed seconds
Timing for main: time 2016-08-29_09:14:27 on domain   3:    1.56735 elapsed seconds
Timing for main: time 2016-08-29_09:14:30 on domain   3:    1.64199 elapsed seconds
Timing for main: time 2016-08-29_09:14:30 on domain   2:    5.31362 elapsed seconds
Timing for main: time 2016-08-29_09:14:30 on domain   1:   17.90307 elapsed seconds
Timing for main: time 2016-08-29_09:14:32 on domain   3:    1.56578 elapsed seconds
Timing for main: time 2016-08-29_09:14:35 on domain   3:    1.64819 elapsed seconds
Timing for main: time 2016-08-29_09:14:35 on domain   2:    5.30779 elapsed seconds
Timing for main: time 2016-08-29_09:14:37 on domain   3:    1.57846 elapsed seconds
Timing for main: time 2016-08-29_09:14:40 on domain   3:    1.64852 elapsed seconds
Timing for main: time 2016-08-29_09:14:40 on domain   2:    5.33932 elapsed seconds
Timing for main: time 2016-08-29_09:14:42 on domain   3:    1.57255 elapsed seconds
Timing for main: time 2016-08-29_09:14:45 on domain   3:    1.65174 elapsed seconds
Timing for main: time 2016-08-29_09:14:45 on domain   2:    5.32856 elapsed seconds
Timing for main: time 2016-08-29_09:14:45 on domain   1:   17.97279 elapsed seconds
Timing for main: time 2016-08-29_09:14:47 on domain   3:    1.56890 elapsed seconds
Timing for main: time 2016-08-29_09:14:50 on domain   3:    1.64512 elapsed seconds
Timing for main: time 2016-08-29_09:14:50 on domain   2:    5.29069 elapsed seconds
Timing for main: time 2016-08-29_09:14:52 on domain   3:    1.57075 elapsed seconds
Timing for main: time 2016-08-29_09:14:55 on domain   3:    1.64177 elapsed seconds
Timing for main: time 2016-08-29_09:14:55 on domain   2:    5.31688 elapsed seconds
Timing for main: time 2016-08-29_09:14:57 on domain   3:    1.57709 elapsed seconds
Timing for main: time 2016-08-29_09:15:00 on domain   3:    1.62819 elapsed seconds
Timing for main: time 2016-08-29_09:15:00 on domain   2:    5.30556 elapsed seconds
Timing for main: time 2016-08-29_09:15:00 on domain   1:   17.91695 elapsed seconds
Timing for main: time 2016-08-29_09:15:02 on domain   3:    8.71904 elapsed seconds
Timing for main: time 2016-08-29_09:15:05 on domain   3:    1.63493 elapsed seconds
Timing for main: time 2016-08-29_09:15:05 on domain   2:   17.17464 elapsed seconds
Timing for main: time 2016-08-29_09:15:07 on domain   3:    1.56214 elapsed seconds
Timing for main: time 2016-08-29_09:15:10 on domain   3:    1.64954 elapsed seconds
Timing for main: time 2016-08-29_09:15:10 on domain   2:    5.32045 elapsed seconds
Timing for main: time 2016-08-29_09:15:12 on domain   3:    1.56860 elapsed seconds
Timing for main: time 2016-08-29_09:15:15 on domain   3:    1.64783 elapsed seconds
Timing for main: time 2016-08-29_09:15:15 on domain   2:    5.32299 elapsed seconds
Timing for main: time 2016-08-29_09:15:15 on domain   1:   35.55396 elapsed seconds
Timing for main: time 2016-08-29_09:15:17 on domain   3:    1.57624 elapsed seconds
Timing for main: time 2016-08-29_09:15:20 on domain   3:    1.65950 elapsed seconds
Timing for main: time 2016-08-29_09:15:20 on domain   2:    5.31608 elapsed seconds
Timing for main: time 2016-08-29_09:15:22 on domain   3:    1.56484 elapsed seconds
Timing for main: time 2016-08-29_09:15:25 on domain   3:    1.64864 elapsed seconds
Timing for main: time 2016-08-29_09:15:25 on domain   2:    5.31277 elapsed seconds
Timing for main: time 2016-08-29_09:15:27 on domain   3:    1.57885 elapsed seconds
Timing for main: time 2016-08-29_09:15:30 on domain   3:    1.64414 elapsed seconds
Timing for main: time 2016-08-29_09:15:30 on domain   2:    5.32252 elapsed seconds
Timing for main: time 2016-08-29_09:15:30 on domain   1:   17.95518 elapsed seconds
Timing for main: time 2016-08-29_09:15:32 on domain   3:    1.57601 elapsed seconds
Timing for main: time 2016-08-29_09:15:35 on domain   3:    1.64947 elapsed seconds
Timing for main: time 2016-08-29_09:15:35 on domain   2:    5.31019 elapsed seconds
Timing for main: time 2016-08-29_09:15:37 on domain   3:    1.57344 elapsed seconds
Timing for main: time 2016-08-29_09:15:40 on domain   3:    1.64711 elapsed seconds
Timing for main: time 2016-08-29_09:15:40 on domain   2:    5.32097 elapsed seconds
Timing for main: time 2016-08-29_09:15:42 on domain   3:    1.56834 elapsed seconds
Timing for main: time 2016-08-29_09:15:45 on domain   3:    1.64158 elapsed seconds
Timing for main: time 2016-08-29_09:15:45 on domain   2:    5.31800 elapsed seconds
Timing for main: time 2016-08-29_09:15:45 on domain   1:   17.94196 elapsed seconds
Timing for main: time 2016-08-29_09:15:47 on domain   3:    1.57842 elapsed seconds
Timing for main: time 2016-08-29_09:15:50 on domain   3:    1.64606 elapsed seconds
Timing for main: time 2016-08-29_09:15:50 on domain   2:    5.30252 elapsed seconds
Timing for main: time 2016-08-29_09:15:52 on domain   3:    1.56136 elapsed seconds
Timing for main: time 2016-08-29_09:15:55 on domain   3:    1.65356 elapsed seconds
Timing for main: time 2016-08-29_09:15:55 on domain   2:    5.31662 elapsed seconds
Timing for main: time 2016-08-29_09:15:57 on domain   3:    1.56426 elapsed seconds
Timing for main: time 2016-08-29_09:16:00 on domain   3:    1.64070 elapsed seconds
Timing for main: time 2016-08-29_09:16:00 on domain   2:    5.31708 elapsed seconds
Timing for main: time 2016-08-29_09:16:00 on domain   1:   17.94159 elapsed seconds
Timing for main: time 2016-08-29_09:16:02 on domain   3:    1.56838 elapsed seconds
Timing for main: time 2016-08-29_09:16:05 on domain   3:    1.63779 elapsed seconds
Timing for main: time 2016-08-29_09:16:05 on domain   2:    5.29325 elapsed seconds
Timing for main: time 2016-08-29_09:16:07 on domain   3:    1.57059 elapsed seconds
Timing for main: time 2016-08-29_09:16:10 on domain   3:    1.64323 elapsed seconds
Timing for main: time 2016-08-29_09:16:10 on domain   2:    5.32373 elapsed seconds
Timing for main: time 2016-08-29_09:16:12 on domain   3:    1.57394 elapsed seconds
Timing for main: time 2016-08-29_09:16:15 on domain   3:    1.64524 elapsed seconds
Timing for main: time 2016-08-29_09:16:15 on domain   2:    5.32621 elapsed seconds
Timing for main: time 2016-08-29_09:16:15 on domain   1:   17.95196 elapsed seconds
Timing for main: time 2016-08-29_09:16:17 on domain   3:    1.57949 elapsed seconds
Timing for main: time 2016-08-29_09:16:20 on domain   3:    1.65629 elapsed seconds
Timing for main: time 2016-08-29_09:16:20 on domain   2:    5.32317 elapsed seconds
Timing for main: time 2016-08-29_09:16:22 on domain   3:    1.57381 elapsed seconds
Timing for main: time 2016-08-29_09:16:25 on domain   3:    1.64434 elapsed seconds
Timing for main: time 2016-08-29_09:16:25 on domain   2:    5.31184 elapsed seconds
Timing for main: time 2016-08-29_09:16:27 on domain   3:    1.57488 elapsed seconds
Timing for main: time 2016-08-29_09:16:30 on domain   3:    1.65701 elapsed seconds
Timing for main: time 2016-08-29_09:16:30 on domain   2:    5.33303 elapsed seconds
Timing for main: time 2016-08-29_09:16:30 on domain   1:   17.95930 elapsed seconds
Timing for main: time 2016-08-29_09:16:32 on domain   3:    1.56909 elapsed seconds
Timing for main: time 2016-08-29_09:16:35 on domain   3:    1.64583 elapsed seconds
Timing for main: time 2016-08-29_09:16:35 on domain   2:    5.28879 elapsed seconds
Timing for main: time 2016-08-29_09:16:37 on domain   3:    1.57331 elapsed seconds
Timing for main: time 2016-08-29_09:16:40 on domain   3:    1.64600 elapsed seconds
Timing for main: time 2016-08-29_09:16:40 on domain   2:    5.32634 elapsed seconds
Timing for main: time 2016-08-29_09:16:42 on domain   3:    1.56669 elapsed seconds
Timing for main: time 2016-08-29_09:16:45 on domain   3:    1.64316 elapsed seconds
Timing for main: time 2016-08-29_09:16:45 on domain   2:    5.31775 elapsed seconds
Timing for main: time 2016-08-29_09:16:45 on domain   1:   17.93154 elapsed seconds
Timing for main: time 2016-08-29_09:16:47 on domain   3:    1.56767 elapsed seconds
Timing for main: time 2016-08-29_09:16:50 on domain   3:    1.64848 elapsed seconds
Timing for main: time 2016-08-29_09:16:50 on domain   2:    5.29118 elapsed seconds
Timing for main: time 2016-08-29_09:16:52 on domain   3:    1.57466 elapsed seconds
Timing for main: time 2016-08-29_09:16:55 on domain   3:    1.64525 elapsed seconds
Timing for main: time 2016-08-29_09:16:55 on domain   2:    5.32474 elapsed seconds
Timing for main: time 2016-08-29_09:16:57 on domain   3:    1.57276 elapsed seconds
Timing for main: time 2016-08-29_09:17:00 on domain   3:    1.65303 elapsed seconds
Timing for main: time 2016-08-29_09:17:00 on domain   2:    5.33594 elapsed seconds
Timing for main: time 2016-08-29_09:17:00 on domain   1:   17.93927 elapsed seconds
Timing for main: time 2016-08-29_09:17:02 on domain   3:    1.58359 elapsed seconds
Timing for main: time 2016-08-29_09:17:05 on domain   3:    1.65234 elapsed seconds
Timing for main: time 2016-08-29_09:17:05 on domain   2:    5.31767 elapsed seconds
Timing for main: time 2016-08-29_09:17:07 on domain   3:    1.57428 elapsed seconds
Timing for main: time 2016-08-29_09:17:10 on domain   3:    1.65048 elapsed seconds
Timing for main: time 2016-08-29_09:17:10 on domain   2:    5.32511 elapsed seconds
Timing for main: time 2016-08-29_09:17:12 on domain   3:    1.56844 elapsed seconds
Timing for main: time 2016-08-29_09:17:15 on domain   3:    1.64336 elapsed seconds
Timing for main: time 2016-08-29_09:17:15 on domain   2:    5.30945 elapsed seconds
Timing for main: time 2016-08-29_09:17:15 on domain   1:   17.95478 elapsed seconds
Timing for main: time 2016-08-29_09:17:17 on domain   3:    1.57676 elapsed seconds
Timing for main: time 2016-08-29_09:17:20 on domain   3:    1.64211 elapsed seconds
Timing for main: time 2016-08-29_09:17:20 on domain   2:    5.29702 elapsed seconds
Timing for main: time 2016-08-29_09:17:22 on domain   3:    1.56548 elapsed seconds
Timing for main: time 2016-08-29_09:17:25 on domain   3:    1.64451 elapsed seconds
Timing for main: time 2016-08-29_09:17:25 on domain   2:    5.31782 elapsed seconds
Timing for main: time 2016-08-29_09:17:27 on domain   3:    1.57137 elapsed seconds
Timing for main: time 2016-08-29_09:17:30 on domain   3:    1.64589 elapsed seconds
Timing for main: time 2016-08-29_09:17:30 on domain   2:    5.31900 elapsed seconds
Timing for main: time 2016-08-29_09:17:30 on domain   1:   17.94154 elapsed seconds
Timing for main: time 2016-08-29_09:17:32 on domain   3:    1.56966 elapsed seconds
Timing for main: time 2016-08-29_09:17:35 on domain   3:    1.64894 elapsed seconds
Timing for main: time 2016-08-29_09:17:35 on domain   2:    5.30113 elapsed seconds
Timing for main: time 2016-08-29_09:17:37 on domain   3:    1.57696 elapsed seconds
Timing for main: time 2016-08-29_09:17:40 on domain   3:    1.64231 elapsed seconds
Timing for main: time 2016-08-29_09:17:40 on domain   2:    5.32442 elapsed seconds
Timing for main: time 2016-08-29_09:17:42 on domain   3:    1.57355 elapsed seconds
Timing for main: time 2016-08-29_09:17:45 on domain   3:    1.64446 elapsed seconds
Timing for main: time 2016-08-29_09:17:45 on domain   2:    5.31810 elapsed seconds
Timing for main: time 2016-08-29_09:17:45 on domain   1:   17.92881 elapsed seconds
Timing for main: time 2016-08-29_09:17:47 on domain   3:    1.56801 elapsed seconds
Timing for main: time 2016-08-29_09:17:50 on domain   3:    1.64239 elapsed seconds
Timing for main: time 2016-08-29_09:17:50 on domain   2:    5.29532 elapsed seconds
Timing for main: time 2016-08-29_09:17:52 on domain   3:    1.57303 elapsed seconds
Timing for main: time 2016-08-29_09:17:55 on domain   3:    1.64790 elapsed seconds
Timing for main: time 2016-08-29_09:17:55 on domain   2:    5.32656 elapsed seconds
Timing for main: time 2016-08-29_09:17:57 on domain   3:    1.56951 elapsed seconds
Timing for main: time 2016-08-29_09:18:00 on domain   3:    1.64797 elapsed seconds
Timing for main: time 2016-08-29_09:18:00 on domain   2:    5.32093 elapsed seconds
Timing for main: time 2016-08-29_09:18:00 on domain   1:   17.94797 elapsed seconds
Timing for main: time 2016-08-29_09:18:02 on domain   3:    8.73481 elapsed seconds
Timing for main: time 2016-08-29_09:18:05 on domain   3:    1.65154 elapsed seconds
Timing for main: time 2016-08-29_09:18:05 on domain   2:   17.22678 elapsed seconds
Timing for main: time 2016-08-29_09:18:07 on domain   3:    1.57279 elapsed seconds
Timing for main: time 2016-08-29_09:18:10 on domain   3:    1.63843 elapsed seconds
Timing for main: time 2016-08-29_09:18:10 on domain   2:    5.30561 elapsed seconds
Timing for main: time 2016-08-29_09:18:12 on domain   3:    1.57183 elapsed seconds
Timing for main: time 2016-08-29_09:18:15 on domain   3:    1.63848 elapsed seconds
Timing for main: time 2016-08-29_09:18:15 on domain   2:    5.31036 elapsed seconds
Timing for main: time 2016-08-29_09:18:15 on domain   1:   35.60403 elapsed seconds
Timing for main: time 2016-08-29_09:18:17 on domain   3:    1.57321 elapsed seconds
Timing for main: time 2016-08-29_09:18:20 on domain   3:    1.64062 elapsed seconds
Timing for main: time 2016-08-29_09:18:20 on domain   2:    5.25857 elapsed seconds
Timing for main: time 2016-08-29_09:18:22 on domain   3:    1.56859 elapsed seconds
Timing for main: time 2016-08-29_09:18:25 on domain   3:    1.64617 elapsed seconds
Timing for main: time 2016-08-29_09:18:25 on domain   2:    5.31131 elapsed seconds
Timing for main: time 2016-08-29_09:18:27 on domain   3:    1.57740 elapsed seconds
Timing for main: time 2016-08-29_09:18:30 on domain   3:    1.64284 elapsed seconds
Timing for main: time 2016-08-29_09:18:30 on domain   2:    5.32529 elapsed seconds
Timing for main: time 2016-08-29_09:18:30 on domain   1:   17.93269 elapsed seconds
Timing for main: time 2016-08-29_09:18:32 on domain   3:    1.56478 elapsed seconds
Timing for main: time 2016-08-29_09:18:35 on domain   3:    1.64768 elapsed seconds
Timing for main: time 2016-08-29_09:18:35 on domain   2:    5.30062 elapsed seconds
Timing for main: time 2016-08-29_09:18:37 on domain   3:    1.57042 elapsed seconds
Timing for main: time 2016-08-29_09:18:40 on domain   3:    1.65163 elapsed seconds
Timing for main: time 2016-08-29_09:18:40 on domain   2:    5.31249 elapsed seconds
Timing for main: time 2016-08-29_09:18:42 on domain   3:    1.57133 elapsed seconds
Timing for main: time 2016-08-29_09:18:45 on domain   3:    1.64126 elapsed seconds
Timing for main: time 2016-08-29_09:18:45 on domain   2:    5.31467 elapsed seconds
Timing for main: time 2016-08-29_09:18:45 on domain   1:   17.92689 elapsed seconds
Timing for main: time 2016-08-29_09:18:47 on domain   3:    1.56954 elapsed seconds
Timing for main: time 2016-08-29_09:18:50 on domain   3:    1.64143 elapsed seconds
Timing for main: time 2016-08-29_09:18:50 on domain   2:    5.29710 elapsed seconds
Timing for main: time 2016-08-29_09:18:52 on domain   3:    1.57028 elapsed seconds
Timing for main: time 2016-08-29_09:18:55 on domain   3:    1.63476 elapsed seconds
Timing for main: time 2016-08-29_09:18:55 on domain   2:    5.30192 elapsed seconds
Timing for main: time 2016-08-29_09:18:57 on domain   3:    1.56534 elapsed seconds
Timing for main: time 2016-08-29_09:19:00 on domain   3:    1.64817 elapsed seconds
Timing for main: time 2016-08-29_09:19:00 on domain   2:    5.30708 elapsed seconds
Timing for main: time 2016-08-29_09:19:00 on domain   1:   17.90187 elapsed seconds
Timing for main: time 2016-08-29_09:19:02 on domain   3:    1.60217 elapsed seconds
Timing for main: time 2016-08-29_09:19:05 on domain   3:    1.63120 elapsed seconds
Timing for main: time 2016-08-29_09:19:05 on domain   2:    5.31134 elapsed seconds
Timing for main: time 2016-08-29_09:19:07 on domain   3:    1.57224 elapsed seconds
Timing for main: time 2016-08-29_09:19:10 on domain   3:    1.65260 elapsed seconds
Timing for main: time 2016-08-29_09:19:10 on domain   2:    5.32146 elapsed seconds
Timing for main: time 2016-08-29_09:19:12 on domain   3:    1.56892 elapsed seconds
Timing for main: time 2016-08-29_09:19:15 on domain   3:    1.64961 elapsed seconds
Timing for main: time 2016-08-29_09:19:15 on domain   2:    5.32739 elapsed seconds
Timing for main: time 2016-08-29_09:19:15 on domain   1:   17.95303 elapsed seconds
Timing for main: time 2016-08-29_09:19:17 on domain   3:    1.57883 elapsed seconds
Timing for main: time 2016-08-29_09:19:20 on domain   3:    1.64831 elapsed seconds
Timing for main: time 2016-08-29_09:19:20 on domain   2:    5.31487 elapsed seconds
Timing for main: time 2016-08-29_09:19:22 on domain   3:    1.56903 elapsed seconds
Timing for main: time 2016-08-29_09:19:25 on domain   3:    1.64944 elapsed seconds
Timing for main: time 2016-08-29_09:19:25 on domain   2:    5.32784 elapsed seconds
Timing for main: time 2016-08-29_09:19:27 on domain   3:    1.57208 elapsed seconds
Timing for main: time 2016-08-29_09:19:30 on domain   3:    1.64316 elapsed seconds
Timing for main: time 2016-08-29_09:19:30 on domain   2:    5.31047 elapsed seconds
Timing for main: time 2016-08-29_09:19:30 on domain   1:   17.98326 elapsed seconds
Timing for main: time 2016-08-29_09:19:32 on domain   3:    1.57373 elapsed seconds
Timing for main: time 2016-08-29_09:19:35 on domain   3:    1.66351 elapsed seconds
Timing for main: time 2016-08-29_09:19:35 on domain   2:    5.30930 elapsed seconds
Timing for main: time 2016-08-29_09:19:37 on domain   3:    1.56684 elapsed seconds
Timing for main: time 2016-08-29_09:19:40 on domain   3:    1.64803 elapsed seconds
Timing for main: time 2016-08-29_09:19:40 on domain   2:    5.31175 elapsed seconds
Timing for main: time 2016-08-29_09:19:42 on domain   3:    1.57155 elapsed seconds
Timing for main: time 2016-08-29_09:19:45 on domain   3:    1.64445 elapsed seconds
Timing for main: time 2016-08-29_09:19:45 on domain   2:    5.30894 elapsed seconds
Timing for main: time 2016-08-29_09:19:45 on domain   1:   17.91563 elapsed seconds
Timing for main: time 2016-08-29_09:19:47 on domain   3:    1.56971 elapsed seconds
Timing for main: time 2016-08-29_09:19:50 on domain   3:    1.64995 elapsed seconds
Timing for main: time 2016-08-29_09:19:50 on domain   2:    5.29756 elapsed seconds
Timing for main: time 2016-08-29_09:19:52 on domain   3:    1.54989 elapsed seconds
Timing for main: time 2016-08-29_09:19:55 on domain   3:    1.65808 elapsed seconds
Timing for main: time 2016-08-29_09:19:55 on domain   2:    5.34592 elapsed seconds
Timing for main: time 2016-08-29_09:19:57 on domain   3:    1.54593 elapsed seconds
Timing for main: time 2016-08-29_09:20:00 on domain   3:    1.64468 elapsed seconds
Timing for main: time 2016-08-29_09:20:00 on domain   2:    5.33363 elapsed seconds
Timing for main: time 2016-08-29_09:20:00 on domain   1:   17.98124 elapsed seconds
Timing for main: time 2016-08-29_09:20:02 on domain   3:    1.58571 elapsed seconds
Timing for main: time 2016-08-29_09:20:05 on domain   3:    1.64646 elapsed seconds
Timing for main: time 2016-08-29_09:20:05 on domain   2:    5.32517 elapsed seconds
Timing for main: time 2016-08-29_09:20:07 on domain   3:    1.57608 elapsed seconds
Timing for main: time 2016-08-29_09:20:10 on domain   3:    1.64647 elapsed seconds
Timing for main: time 2016-08-29_09:20:10 on domain   2:    5.33536 elapsed seconds
Timing for main: time 2016-08-29_09:20:12 on domain   3:    1.57080 elapsed seconds
Timing for main: time 2016-08-29_09:20:15 on domain   3:    1.64243 elapsed seconds
Timing for main: time 2016-08-29_09:20:15 on domain   2:    5.31960 elapsed seconds
Timing for main: time 2016-08-29_09:20:15 on domain   1:   17.99492 elapsed seconds
Timing for main: time 2016-08-29_09:20:17 on domain   3:    1.57546 elapsed seconds
Timing for main: time 2016-08-29_09:20:20 on domain   3:    1.63969 elapsed seconds
Timing for main: time 2016-08-29_09:20:20 on domain   2:    5.29459 elapsed seconds
Timing for main: time 2016-08-29_09:20:22 on domain   3:    1.57281 elapsed seconds
[...]
Timing for main: time 2016-08-29_09:24:07 on domain   3:    1.57890 elapsed seconds
Timing for main: time 2016-08-29_09:24:10 on domain   3:    1.64193 elapsed seconds
Timing for main: time 2016-08-29_09:24:10 on domain   2:    5.31987 elapsed seconds
Timing for main: time 2016-08-29_09:24:12 on domain   3:    1.57172 elapsed seconds
Timing for main: time 2016-08-29_09:24:15 on domain   3:    1.65192 elapsed seconds
Timing for main: time 2016-08-29_09:24:15 on domain   2:    5.32557 elapsed seconds
Timing for main: time 2016-08-29_09:24:15 on domain   1:   35.67040 elapsed seconds
Timing for main: time 2016-08-29_09:24:17 on domain   3:    1.57395 elapsed seconds
Timing for main: time 2016-08-29_09:24:20 on domain   3:    1.64125 elapsed seconds
Timing for main: time 2016-08-29_09:24:20 on domain   2:    5.28781 elapsed seconds
Timing for main: time 2016-08-29_09:24:22 on domain   3:    1.57420 elapsed seconds
Timing for main: time 2016-08-29_09:24:25 on domain   3:    1.63951 elapsed seconds
Timing for main: time 2016-08-29_09:24:25 on domain   2:    5.31338 elapsed seconds
Timing for main: time 2016-08-29_09:24:27 on domain   3:    1.57344 elapsed seconds
Timing for main: time 2016-08-29_09:24:30 on domain   3:    1.64006 elapsed seconds
Timing for main: time 2016-08-29_09:24:30 on domain   2:    5.30880 elapsed seconds
Timing for main: time 2016-08-29_09:24:30 on domain   1:   17.92481 elapsed seconds
Timing for main: time 2016-08-29_09:24:32 on domain   3:    1.57350 elapsed seconds
Timing for main: time 2016-08-29_09:24:35 on domain   3:    1.64043 elapsed seconds
Timing for main: time 2016-08-29_09:24:35 on domain   2:    5.29910 elapsed seconds
Timing for main: time 2016-08-29_09:24:37 on domain   3:    1.57076 elapsed seconds
Timing for main: time 2016-08-29_09:24:40 on domain   3:    1.64511 elapsed seconds
Timing for main: time 2016-08-29_09:24:40 on domain   2:    5.31059 elapsed seconds
Timing for main: time 2016-08-29_09:24:42 on domain   3:    1.57364 elapsed seconds
Timing for main: time 2016-08-29_09:24:45 on domain   3:    1.64565 elapsed seconds
Timing for main: time 2016-08-29_09:24:45 on domain   2:    5.31141 elapsed seconds
Timing for main: time 2016-08-29_09:24:45 on domain   1:   17.91445 elapsed seconds
Timing for main: time 2016-08-29_09:24:47 on domain   3:    1.58107 elapsed seconds
Timing for main: time 2016-08-29_09:24:50 on domain   3:    1.63925 elapsed seconds
Timing for main: time 2016-08-29_09:24:50 on domain   2:    5.29776 elapsed seconds
Timing for main: time 2016-08-29_09:24:52 on domain   3:    1.56749 elapsed seconds
Timing for main: time 2016-08-29_09:24:55 on domain   3:    1.65312 elapsed seconds
Timing for main: time 2016-08-29_09:24:55 on domain   2:    5.32483 elapsed seconds
Timing for main: time 2016-08-29_09:24:57 on domain   3:    1.57369 elapsed seconds
Timing for main: time 2016-08-29_09:25:00 on domain   3:    1.64949 elapsed seconds
Timing for main: time 2016-08-29_09:25:00 on domain   2:    5.31250 elapsed seconds
Timing for main: time 2016-08-29_09:25:00 on domain   1:   17.93424 elapsed seconds
Timing for main: time 2016-08-29_09:25:02 on domain   3:    1.56766 elapsed seconds
Timing for main: time 2016-08-29_09:25:05 on domain   3:    1.64273 elapsed seconds
Timing for main: time 2016-08-29_09:25:05 on domain   2:    5.28526 elapsed seconds
Timing for main: time 2016-08-29_09:25:07 on domain   3:    1.57461 elapsed seconds
Timing for main: time 2016-08-29_09:25:10 on domain   3:    1.64199 elapsed seconds
Timing for main: time 2016-08-29_09:25:10 on domain   2:    5.32964 elapsed seconds
Timing for main: time 2016-08-29_09:25:12 on domain   3:    1.56563 elapsed seconds
Timing for main: time 2016-08-29_09:25:15 on domain   3:    1.64430 elapsed seconds
Timing for main: time 2016-08-29_09:25:15 on domain   2:    5.30867 elapsed seconds
Timing for main: time 2016-08-29_09:25:15 on domain   1:   17.91821 elapsed seconds
Timing for main: time 2016-08-29_09:25:17 on domain   3:    1.57021 elapsed seconds
Timing for main: time 2016-08-29_09:25:20 on domain   3:    1.64621 elapsed seconds
Timing for main: time 2016-08-29_09:25:20 on domain   2:    5.29219 elapsed seconds
Timing for main: time 2016-08-29_09:25:22 on domain   3:    1.57272 elapsed seconds
Timing for main: time 2016-08-29_09:25:25 on domain   3:    1.64078 elapsed seconds
Timing for main: time 2016-08-29_09:25:25 on domain   2:    5.32305 elapsed seconds
Timing for main: time 2016-08-29_09:25:27 on domain   3:    1.56713 elapsed seconds
Timing for main: time 2016-08-29_09:25:30 on domain   3:    1.64619 elapsed seconds
Timing for main: time 2016-08-29_09:25:30 on domain   2:    5.31424 elapsed seconds
Timing for main: time 2016-08-29_09:25:30 on domain   1:   17.92700 elapsed seconds
Timing for main: time 2016-08-29_09:25:32 on domain   3:    1.57550 elapsed seconds
Timing for main: time 2016-08-29_09:25:35 on domain   3:    1.64294 elapsed seconds
Timing for main: time 2016-08-29_09:25:35 on domain   2:    5.29711 elapsed seconds
Timing for main: time 2016-08-29_09:25:37 on domain   3:    1.58364 elapsed seconds
Timing for main: time 2016-08-29_09:25:40 on domain   3:    1.65668 elapsed seconds
Timing for main: time 2016-08-29_09:25:40 on domain   2:    5.34187 elapsed seconds
Timing for main: time 2016-08-29_09:25:42 on domain   3:    1.56970 elapsed seconds
Timing for main: time 2016-08-29_09:25:45 on domain   3:    1.65034 elapsed seconds
Timing for main: time 2016-08-29_09:25:45 on domain   2:    5.31673 elapsed seconds
Timing for main: time 2016-08-29_09:25:45 on domain   1:   17.96039 elapsed seconds
Timing for main: time 2016-08-29_09:25:47 on domain   3:    1.57398 elapsed seconds
Timing for main: time 2016-08-29_09:25:50 on domain   3:    1.65007 elapsed seconds
Timing for main: time 2016-08-29_09:25:50 on domain   2:    5.29621 elapsed seconds
Timing for main: time 2016-08-29_09:25:52 on domain   3:    1.56980 elapsed seconds
Timing for main: time 2016-08-29_09:25:55 on domain   3:    1.66682 elapsed seconds
Timing for main: time 2016-08-29_09:25:55 on domain   2:    5.32656 elapsed seconds
Timing for main: time 2016-08-29_09:25:57 on domain   3:    1.56457 elapsed seconds
Timing for main: time 2016-08-29_09:26:00 on domain   3:    1.64427 elapsed seconds
Timing for main: time 2016-08-29_09:26:00 on domain   2:    5.30849 elapsed seconds
Timing for main: time 2016-08-29_09:26:00 on domain   1:   17.93208 elapsed seconds
Timing for main: time 2016-08-29_09:26:02 on domain   3:    1.57236 elapsed seconds
Timing for main: time 2016-08-29_09:26:05 on domain   3:    1.64799 elapsed seconds
Timing for main: time 2016-08-29_09:26:05 on domain   2:    5.28948 elapsed seconds
Timing for main: time 2016-08-29_09:26:07 on domain   3:    1.58255 elapsed seconds
Timing for main: time 2016-08-29_09:26:10 on domain   3:    1.64522 elapsed seconds
Timing for main: time 2016-08-29_09:26:10 on domain   2:    5.31986 elapsed seconds
Timing for main: time 2016-08-29_09:26:12 on domain   3:    1.57222 elapsed seconds
Timing for main: time 2016-08-29_09:26:15 on domain   3:    1.64615 elapsed seconds
Timing for main: time 2016-08-29_09:26:15 on domain   2:    5.34073 elapsed seconds
Timing for main: time 2016-08-29_09:26:15 on domain   1:   17.95016 elapsed seconds
Timing for main: time 2016-08-29_09:26:17 on domain   3:    1.57163 elapsed seconds
Timing for main: time 2016-08-29_09:26:20 on domain   3:    1.65086 elapsed seconds
Timing for main: time 2016-08-29_09:26:20 on domain   2:    5.30766 elapsed seconds
Timing for main: time 2016-08-29_09:26:22 on domain   3:    1.57855 elapsed seconds
Timing for main: time 2016-08-29_09:26:25 on domain   3:    1.63843 elapsed seconds
Timing for main: time 2016-08-29_09:26:25 on domain   2:    5.31402 elapsed seconds
Timing for main: time 2016-08-29_09:26:27 on domain   3:    1.57596 elapsed seconds
Timing for main: time 2016-08-29_09:26:30 on domain   3:    1.64986 elapsed seconds
Timing for main: time 2016-08-29_09:26:30 on domain   2:    5.32676 elapsed seconds
Timing for main: time 2016-08-29_09:26:30 on domain   1:   17.95931 elapsed seconds
Timing for main: time 2016-08-29_09:26:32 on domain   3:    1.57497 elapsed seconds
Timing for main: time 2016-08-29_09:26:35 on domain   3:    1.64883 elapsed seconds
Timing for main: time 2016-08-29_09:26:35 on domain   2:    5.30005 elapsed seconds
Timing for main: time 2016-08-29_09:26:37 on domain   3:    1.57065 elapsed seconds
Timing for main: time 2016-08-29_09:26:40 on domain   3:    1.65291 elapsed seconds
Timing for main: time 2016-08-29_09:26:40 on domain   2:    5.33164 elapsed seconds
Timing for main: time 2016-08-29_09:26:42 on domain   3:    1.56831 elapsed seconds
Timing for main: time 2016-08-29_09:26:45 on domain   3:    1.64557 elapsed seconds
Timing for main: time 2016-08-29_09:26:45 on domain   2:    5.31858 elapsed seconds
Timing for main: time 2016-08-29_09:26:45 on domain   1:   17.94611 elapsed seconds
Timing for main: time 2016-08-29_09:26:47 on domain   3:    1.57505 elapsed seconds
Timing for main: time 2016-08-29_09:26:50 on domain   3:    1.64899 elapsed seconds
Timing for main: time 2016-08-29_09:26:50 on domain   2:    5.28808 elapsed seconds
Timing for main: time 2016-08-29_09:26:52 on domain   3:    1.57354 elapsed seconds
Timing for main: time 2016-08-29_09:26:55 on domain   3:    1.65874 elapsed seconds
Timing for main: time 2016-08-29_09:26:55 on domain   2:    5.33205 elapsed seconds
Timing for main: time 2016-08-29_09:26:57 on domain   3:    1.57354 elapsed seconds
Timing for main: time 2016-08-29_09:27:00 on domain   3:    1.64256 elapsed seconds
Timing for main: time 2016-08-29_09:27:00 on domain   2:    5.33322 elapsed seconds
Timing for main: time 2016-08-29_09:27:00 on domain   1:   17.95121 elapsed seconds
Timing for main: time 2016-08-29_09:27:02 on domain   3:    8.73198 elapsed seconds
Timing for main: time 2016-08-29_09:27:05 on domain   3:    1.64395 elapsed seconds
Timing for main: time 2016-08-29_09:27:05 on domain   2:   17.25690 elapsed seconds
Timing for main: time 2016-08-29_09:27:07 on domain   3:    1.56975 elapsed seconds
Timing for main: time 2016-08-29_09:27:10 on domain   3:    1.65100 elapsed seconds
Timing for main: time 2016-08-29_09:27:10 on domain   2:    5.32150 elapsed seconds
Timing for main: time 2016-08-29_09:27:12 on domain   3:    1.59834 elapsed seconds
Timing for main: time 2016-08-29_09:27:15 on domain   3:    1.65046 elapsed seconds
Timing for main: time 2016-08-29_09:27:15 on domain   2:    5.41181 elapsed seconds
Timing for main: time 2016-08-29_09:27:15 on domain   1:   35.77419 elapsed seconds
Timing for main: time 2016-08-29_09:27:17 on domain   3:    1.59418 elapsed seconds
Timing for main: time 2016-08-29_09:27:20 on domain   3:    1.60523 elapsed seconds
Timing for main: time 2016-08-29_09:27:20 on domain   2:    5.32198 elapsed seconds
Timing for main: time 2016-08-29_09:27:22 on domain   3:    1.59018 elapsed seconds
Timing for main: time 2016-08-29_09:27:25 on domain   3:    1.63368 elapsed seconds
Timing for main: time 2016-08-29_09:27:25 on domain   2:    5.32151 elapsed seconds
Timing for main: time 2016-08-29_09:27:27 on domain   3:    1.57487 elapsed seconds
Timing for main: time 2016-08-29_09:27:30 on domain   3:    1.64270 elapsed seconds
Timing for main: time 2016-08-29_09:27:30 on domain   2:    5.31664 elapsed seconds
Timing for main: time 2016-08-29_09:27:30 on domain   1:   17.96286 elapsed seconds
Timing for main: time 2016-08-29_09:27:32 on domain   3:    1.57288 elapsed seconds
Timing for main: time 2016-08-29_09:27:35 on domain   3:    1.64448 elapsed seconds
Timing for main: time 2016-08-29_09:27:35 on domain   2:    5.29433 elapsed seconds
Timing for main: time 2016-08-29_09:27:37 on domain   3:    1.57339 elapsed seconds
Timing for main: time 2016-08-29_09:27:40 on domain   3:    1.64115 elapsed seconds
Timing for main: time 2016-08-29_09:27:40 on domain   2:    5.33298 elapsed seconds
Timing for main: time 2016-08-29_09:27:42 on domain   3:    1.59048 elapsed seconds
Timing for main: time 2016-08-29_09:27:45 on domain   3:    1.64767 elapsed seconds
Timing for main: time 2016-08-29_09:27:45 on domain   2:    5.34007 elapsed seconds
Timing for main: time 2016-08-29_09:27:45 on domain   1:   17.96387 elapsed seconds
Timing for main: time 2016-08-29_09:27:47 on domain   3:    1.56899 elapsed seconds
Timing for main: time 2016-08-29_09:27:50 on domain   3:    1.65503 elapsed seconds
Timing for main: time 2016-08-29_09:27:50 on domain   2:    5.30398 elapsed seconds
Timing for main: time 2016-08-29_09:27:52 on domain   3:    1.58167 elapsed seconds
Timing for main: time 2016-08-29_09:27:55 on domain   3:    1.64159 elapsed seconds
Timing for main: time 2016-08-29_09:27:55 on domain   2:    5.31686 elapsed seconds
Timing for main: time 2016-08-29_09:27:57 on domain   3:    1.57172 elapsed seconds
Timing for main: time 2016-08-29_09:28:00 on domain   3:    1.64713 elapsed seconds
Timing for main: time 2016-08-29_09:28:00 on domain   2:    5.31642 elapsed seconds
Timing for main: time 2016-08-29_09:28:00 on domain   1:   17.93051 elapsed seconds
Timing for main: time 2016-08-29_09:28:02 on domain   3:    1.57178 elapsed seconds
Timing for main: time 2016-08-29_09:28:05 on domain   3:    1.64363 elapsed seconds
Timing for main: time 2016-08-29_09:28:05 on domain   2:    5.29084 elapsed seconds
Timing for main: time 2016-08-29_09:28:07 on domain   3:    1.58338 elapsed seconds
Timing for main: time 2016-08-29_09:28:10 on domain   3:    1.64530 elapsed seconds
Timing for main: time 2016-08-29_09:28:10 on domain   2:    5.32901 elapsed seconds
Timing for main: time 2016-08-29_09:28:12 on domain   3:    1.57353 elapsed seconds
Timing for main: time 2016-08-29_09:28:15 on domain   3:    1.64969 elapsed seconds
Timing for main: time 2016-08-29_09:28:15 on domain   2:    5.31616 elapsed seconds
Timing for main: time 2016-08-29_09:28:15 on domain   1:   17.93186 elapsed seconds
Timing for main: time 2016-08-29_09:28:17 on domain   3:    1.56647 elapsed seconds
Timing for main: time 2016-08-29_09:28:20 on domain   3:    1.64293 elapsed seconds
Timing for main: time 2016-08-29_09:28:20 on domain   2:    5.29239 elapsed seconds
Timing for main: time 2016-08-29_09:28:22 on domain   3:    1.58559 elapsed seconds
Timing for main: time 2016-08-29_09:28:25 on domain   3:    1.63595 elapsed seconds
Timing for main: time 2016-08-29_09:28:25 on domain   2:    5.32545 elapsed seconds
Timing for main: time 2016-08-29_09:28:27 on domain   3:    1.58236 elapsed seconds
Timing for main: time 2016-08-29_09:28:30 on domain   3:    1.65176 elapsed seconds
Timing for main: time 2016-08-29_09:28:30 on domain   2:    5.32109 elapsed seconds
Timing for main: time 2016-08-29_09:28:30 on domain   1:   17.92848 elapsed seconds
Timing for main: time 2016-08-29_09:28:32 on domain   3:    1.57751 elapsed seconds
Timing for main: time 2016-08-29_09:28:35 on domain   3:    1.64488 elapsed seconds
Timing for main: time 2016-08-29_09:28:35 on domain   2:    5.30198 elapsed seconds
Timing for main: time 2016-08-29_09:28:37 on domain   3:    1.58202 elapsed seconds
Timing for main: time 2016-08-29_09:28:40 on domain   3:    1.65373 elapsed seconds
Timing for main: time 2016-08-29_09:28:40 on domain   2:    5.33003 elapsed seconds
Timing for main: time 2016-08-29_09:28:42 on domain   3:    1.57192 elapsed seconds
Timing for main: time 2016-08-29_09:28:45 on domain   3:    1.65181 elapsed seconds
Timing for main: time 2016-08-29_09:28:45 on domain   2:    5.32364 elapsed seconds
Timing for main: time 2016-08-29_09:28:45 on domain   1:   17.95326 elapsed seconds
Timing for main: time 2016-08-29_09:28:47 on domain   3:    1.58721 elapsed seconds
Timing for main: time 2016-08-29_09:28:50 on domain   3:    1.63422 elapsed seconds
Timing for main: time 2016-08-29_09:28:50 on domain   2:    5.29617 elapsed seconds
Timing for main: time 2016-08-29_09:28:52 on domain   3:    1.58292 elapsed seconds
Timing for main: time 2016-08-29_09:28:55 on domain   3:    1.64450 elapsed seconds
Timing for main: time 2016-08-29_09:28:55 on domain   2:    5.32837 elapsed seconds
Timing for main: time 2016-08-29_09:28:57 on domain   3:    1.57263 elapsed seconds
Timing for main: time 2016-08-29_09:29:00 on domain   3:    1.64242 elapsed seconds
Timing for main: time 2016-08-29_09:29:00 on domain   2:    5.31773 elapsed seconds
Timing for main: time 2016-08-29_09:29:00 on domain   1:   17.93447 elapsed seconds
Timing for main: time 2016-08-29_09:29:02 on domain   3:    1.57391 elapsed seconds
Timing for main: time 2016-08-29_09:29:05 on domain   3:    1.64125 elapsed seconds
Timing for main: time 2016-08-29_09:29:05 on domain   2:    5.29120 elapsed seconds
Timing for main: time 2016-08-29_09:29:07 on domain   3:    1.57639 elapsed seconds
Timing for main: time 2016-08-29_09:29:10 on domain   3:    1.64422 elapsed seconds
Timing for main: time 2016-08-29_09:29:10 on domain   2:    5.31304 elapsed seconds
Timing for main: time 2016-08-29_09:29:12 on domain   3:    1.58343 elapsed seconds
Timing for main: time 2016-08-29_09:29:15 on domain   3:    1.63835 elapsed seconds
Timing for main: time 2016-08-29_09:29:15 on domain   2:    5.31579 elapsed seconds
Timing for main: time 2016-08-29_09:29:15 on domain   1:   17.91203 elapsed seconds
Timing for main: time 2016-08-29_09:29:17 on domain   3:    1.57101 elapsed seconds
Timing for main: time 2016-08-29_09:29:20 on domain   3:    1.64491 elapsed seconds
Timing for main: time 2016-08-29_09:29:20 on domain   2:    5.30230 elapsed seconds
Timing for main: time 2016-08-29_09:29:22 on domain   3:    1.58830 elapsed seconds
Timing for main: time 2016-08-29_09:29:25 on domain   3:    1.64777 elapsed seconds
Timing for main: time 2016-08-29_09:29:25 on domain   2:    5.33454 elapsed seconds
Timing for main: time 2016-08-29_09:29:27 on domain   3:    1.57000 elapsed seconds
Timing for main: time 2016-08-29_09:29:30 on domain   3:    1.64586 elapsed seconds
Timing for main: time 2016-08-29_09:29:30 on domain   2:    5.31370 elapsed seconds
Timing for main: time 2016-08-29_09:29:30 on domain   1:   17.94732 elapsed seconds
Timing for main: time 2016-08-29_09:29:32 on domain   3:    1.57837 elapsed seconds
Timing for main: time 2016-08-29_09:29:35 on domain   3:    1.65266 elapsed seconds
Timing for main: time 2016-08-29_09:29:35 on domain   2:    5.30024 elapsed seconds
Timing for main: time 2016-08-29_09:29:37 on domain   3:    1.57950 elapsed seconds
Timing for main: time 2016-08-29_09:29:40 on domain   3:    1.63960 elapsed seconds
Timing for main: time 2016-08-29_09:29:40 on domain   2:    5.31493 elapsed seconds
Timing for main: time 2016-08-29_09:29:42 on domain   3:    1.57781 elapsed seconds
Timing for main: time 2016-08-29_09:29:45 on domain   3:    1.64445 elapsed seconds
Timing for main: time 2016-08-29_09:29:45 on domain   2:    5.31836 elapsed seconds
Timing for main: time 2016-08-29_09:29:45 on domain   1:   17.92315 elapsed seconds
Timing for main: time 2016-08-29_09:29:47 on domain   3:    1.57361 elapsed seconds
Timing for main: time 2016-08-29_09:29:50 on domain   3:    1.64940 elapsed seconds
Timing for main: time 2016-08-29_09:29:50 on domain   2:    5.32398 elapsed seconds
Timing for main: time 2016-08-29_09:29:52 on domain   3:    1.57614 elapsed seconds
Timing for main: time 2016-08-29_09:29:55 on domain   3:    1.64747 elapsed seconds
Timing for main: time 2016-08-29_09:29:55 on domain   2:    5.28763 elapsed seconds
Timing for main: time 2016-08-29_09:29:57 on domain   3:    1.57723 elapsed seconds
Timing for main: time 2016-08-29_09:30:00 on domain   3:    1.64401 elapsed seconds
Timing for main: time 2016-08-29_09:30:00 on domain   2:    5.31373 elapsed seconds
Timing for main: time 2016-08-29_09:30:00 on domain   1:   17.92243 elapsed seconds
wrf: SUCCESS COMPLETE WRF
taskid: 0 hostname: nia0435.scinet.local
