taskid: 0 hostname: nia2012.scinet.local
 module_io_quilt_old.F        2931 F
Quilting with   1 groups of   0 I/O tasks.
 Ntasks in X            8 , ntasks in Y           10
Domain # 1: dx =  3000.000 m
Domain # 2: dx =  1000.000 m
Domain # 3: dx =   500.000 m
WRF V4.2.1 MODEL
 *************************************
 Parent domain
 ids,ide,jds,jde            1         793           1         853
 ims,ime,jms,jme           -4         106          -4          93
 ips,ipe,jps,jpe            1          99           1          86
 *************************************
DYNAMICS OPTION: Eulerian Mass Coordinate
 alloc_space_field: domain            1 ,              403220188  bytes allocated
med_initialdata_input: calling input_input
 Domain            1  Setting history stream           24  for u
 Domain            1  Setting history stream           24  for v
 Domain            1  Setting history stream           24  for t
 Domain            1  Setting history stream           24  for qvapor
 Domain            1  Setting history stream           24  for xlat
 Domain            1  Setting history stream           24  for xlong
 Domain            1  Setting history stream           24  for lu_index
 Domain            1  Setting history stream           24  for hgt
 Input data is acceptable to use: wrfinput_d01
 CURRENT DATE          = 2016-08-29_09:00:00
 SIMULATION START DATE = 2016-08-29_00:00:00
Timing for processing wrfinput file (stream 0) for domain        1:   29.64704 elapsed seconds
Max map factor in domain 1 =  1.08. Scale the dt in the model accordingly.
 D01: Time step                              =    15.00000      (s)
 D01: Grid Distance                          =    3.000000      (km)
 D01: Grid Distance Ratio dt/dx              =    5.000000      (s/km)
 D01: Ratio Including Maximum Map Factor     =    5.392106      (s/km)
 D01: NML defined reasonable_time_step_ratio =    6.000000
INPUT LandUse = "MODIFIED_IGBP_MODIS_NOAH"
 LANDUSE TYPE = "MODIFIED_IGBP_MODIS_NOAH" FOUND          33  CATEGORIES           2  SEASONS WATER CATEGORY =           17  SNOW CATEGORY =           15
INITIALIZE THREE Noah LSM RELATED TABLES
Skipping over LUTYPE = USGS
 LANDUSE TYPE = MODIFIED_IGBP_MODIS_NOAH FOUND          20  CATEGORIES
 INPUT SOIL TEXTURE CLASSIFICATION = STAS
 SOIL TEXTURE CLASSIFICATION = STAS FOUND          19  CATEGORIES
ThompMP: read qr_acr_qgV2.dat instead of computing
ThompMP: read qr_acr_qsV2.dat instead of computing
ThompMP: read freezeH2O.dat instead of computing
 *************************************
 Nesting domain
 ids,ide,jds,jde            1         805           1         805
 ims,ime,jms,jme           -4         111          -4          93
 ips,ipe,jps,jpe            1         101           1          81
 INTERMEDIATE domain
 ids,ide,jds,jde          269         542         299         572
 ims,ime,jms,jme          264         314         294         337
 ips,ipe,jps,jpe          267         304         297         327
 *************************************
 alloc_space_field: domain            2 ,               30832560  bytes allocated
 alloc_space_field: domain            2 ,              418487000  bytes allocated
*** Initializing nest domain # 2 from an input file. ***
med_initialdata_input: calling input_input
 Domain            2  Setting history stream           24  for u
 Domain            2  Setting history stream           24  for v
 Domain            2  Setting history stream           24  for t
 Domain            2  Setting history stream           24  for qvapor
 Domain            2  Setting history stream           24  for xlat
 Domain            2  Setting history stream           24  for xlong
 Domain            2  Setting history stream           24  for lu_index
 Domain            2  Setting history stream           24  for hgt
 Input data is acceptable to use: wrfinput_d02
Timing for processing wrfinput file (stream 0) for domain        2:   27.26222 elapsed seconds
INPUT LandUse = "MODIFIED_IGBP_MODIS_NOAH"
 LANDUSE TYPE = "MODIFIED_IGBP_MODIS_NOAH" FOUND          33  CATEGORIES           2  SEASONS WATER CATEGORY =           17  SNOW CATEGORY =           15
INITIALIZE THREE Noah LSM RELATED TABLES
Skipping over LUTYPE = USGS
 LANDUSE TYPE = MODIFIED_IGBP_MODIS_NOAH FOUND          20  CATEGORIES
 INPUT SOIL TEXTURE CLASSIFICATION = STAS
 SOIL TEXTURE CLASSIFICATION = STAS FOUND          19  CATEGORIES
INPUT LandUse = "MODIFIED_IGBP_MODIS_NOAH"
 LANDUSE TYPE = "MODIFIED_IGBP_MODIS_NOAH" FOUND          33  CATEGORIES           2  SEASONS WATER CATEGORY =           17  SNOW CATEGORY =           15
INITIALIZE THREE Noah LSM RELATED TABLES
Skipping over LUTYPE = USGS
 LANDUSE TYPE = MODIFIED_IGBP_MODIS_NOAH FOUND          20  CATEGORIES
 INPUT SOIL TEXTURE CLASSIFICATION = STAS
 SOIL TEXTURE CLASSIFICATION = STAS FOUND          19  CATEGORIES
Max map factor in domain 1 =  1.08. Scale the dt in the model accordingly.
 D01: Time step                              =    15.00000      (s)
 D01: Grid Distance                          =    3.000000      (km)
 D01: Grid Distance Ratio dt/dx              =    5.000000      (s/km)
 D01: Ratio Including Maximum Map Factor     =    5.392106      (s/km)
 D01: NML defined reasonable_time_step_ratio =    6.000000
INPUT LandUse = "MODIFIED_IGBP_MODIS_NOAH"
 LANDUSE TYPE = "MODIFIED_IGBP_MODIS_NOAH" FOUND          33  CATEGORIES           2  SEASONS WATER CATEGORY =           17  SNOW CATEGORY =           15
INITIALIZE THREE Noah LSM RELATED TABLES
Skipping over LUTYPE = USGS
 LANDUSE TYPE = MODIFIED_IGBP_MODIS_NOAH FOUND          20  CATEGORIES
 INPUT SOIL TEXTURE CLASSIFICATION = STAS
 SOIL TEXTURE CLASSIFICATION = STAS FOUND          19  CATEGORIES
Timing for Writing ISC2021_WRF_VALIDATION_OUTPUT_01_2016-08-29_09:00:00 for domain        1:    1.51874 elapsed seconds
 Input data is acceptable to use: wrfbdy_d01
 THIS TIME 2016-08-29_00:00:00, NEXT TIME 2016-08-29_03:00:00
 Input data is acceptable to use: wrfbdy_d01
 THIS TIME 2016-08-29_03:00:00, NEXT TIME 2016-08-29_06:00:00
 Input data is acceptable to use: wrfbdy_d01
 THIS TIME 2016-08-29_06:00:00, NEXT TIME 2016-08-29_09:00:00
 Input data is acceptable to use: wrfbdy_d01
Timing for processing lateral boundary for domain        1:    0.71722 elapsed seconds
WRF NUMBER OF TILES FROM OMP_GET_MAX_THREADS =   2
 Tile Strategy is not specified. Assuming 1D-Y
WRF TILE   1 IS      1 IE     99 JS      1 JE     43
WRF TILE   2 IS      1 IE     99 JS     44 JE     86
WRF NUMBER OF TILES =   2
 *************************************
 Nesting domain
 ids,ide,jds,jde            1        1001           1        1001
 ims,ime,jms,jme           -4         136          -4         110
 ips,ipe,jps,jpe            1         125           1         100
 INTERMEDIATE domain
 ids,ide,jds,jde          149         654         149         654
 ims,ime,jms,jme          144         222         144         210
 ips,ipe,jps,jpe          147         212         147         200
 *************************************
 alloc_space_field: domain            3 ,               72725820  bytes allocated
 alloc_space_field: domain            3 ,              591416884  bytes allocated
*** Initializing nest domain # 3 from an input file. ***
med_initialdata_input: calling input_input
 Domain            3  Setting history stream           24  for u
 Domain            3  Setting history stream           24  for v
 Domain            3  Setting history stream           24  for t
 Domain            3  Setting history stream           24  for qvapor
 Domain            3  Setting history stream           24  for xlat
 Domain            3  Setting history stream           24  for xlong
 Domain            3  Setting history stream           24  for lu_index
 Domain            3  Setting history stream           24  for hgt
 Input data is acceptable to use: wrfinput_d03
Timing for processing wrfinput file (stream 0) for domain        3:   43.85552 elapsed seconds
INPUT LandUse = "MODIFIED_IGBP_MODIS_NOAH"
 LANDUSE TYPE = "MODIFIED_IGBP_MODIS_NOAH" FOUND          33  CATEGORIES           2  SEASONS WATER CATEGORY =           17  SNOW CATEGORY =           15
INITIALIZE THREE Noah LSM RELATED TABLES
Skipping over LUTYPE = USGS
 LANDUSE TYPE = MODIFIED_IGBP_MODIS_NOAH FOUND          20  CATEGORIES
 INPUT SOIL TEXTURE CLASSIFICATION = STAS
 SOIL TEXTURE CLASSIFICATION = STAS FOUND          19  CATEGORIES
INPUT LandUse = "MODIFIED_IGBP_MODIS_NOAH"
 LANDUSE TYPE = "MODIFIED_IGBP_MODIS_NOAH" FOUND          33  CATEGORIES           2  SEASONS WATER CATEGORY =           17  SNOW CATEGORY =           15
INITIALIZE THREE Noah LSM RELATED TABLES
Skipping over LUTYPE = USGS
 LANDUSE TYPE = MODIFIED_IGBP_MODIS_NOAH FOUND          20  CATEGORIES
 INPUT SOIL TEXTURE CLASSIFICATION = STAS
 SOIL TEXTURE CLASSIFICATION = STAS FOUND          19  CATEGORIES
INPUT LandUse = "MODIFIED_IGBP_MODIS_NOAH"
 LANDUSE TYPE = "MODIFIED_IGBP_MODIS_NOAH" FOUND          33  CATEGORIES           2  SEASONS WATER CATEGORY =           17  SNOW CATEGORY =           15
INITIALIZE THREE Noah LSM RELATED TABLES
Skipping over LUTYPE = USGS
 LANDUSE TYPE = MODIFIED_IGBP_MODIS_NOAH FOUND          20  CATEGORIES
 INPUT SOIL TEXTURE CLASSIFICATION = STAS
 SOIL TEXTURE CLASSIFICATION = STAS FOUND          19  CATEGORIES
Timing for Writing ISC2021_WRF_VALIDATION_OUTPUT_02_2016-08-29_09:00:00 for domain        2:    1.50408 elapsed seconds
WRF NUMBER OF TILES FROM OMP_GET_MAX_THREADS =   2
 Tile Strategy is not specified. Assuming 1D-Y
WRF TILE   1 IS      1 IE    101 JS      1 JE     41
WRF TILE   2 IS      1 IE    101 JS     42 JE     81
WRF NUMBER OF TILES =   2
Timing for Writing ISC2021_WRF_VALIDATION_OUTPUT_03_2016-08-29_09:00:00 for domain        3:    2.29278 elapsed seconds
WRF NUMBER OF TILES FROM OMP_GET_MAX_THREADS =   2
 Tile Strategy is not specified. Assuming 1D-Y
WRF TILE   1 IS      1 IE    125 JS      1 JE     50
WRF TILE   2 IS      1 IE    125 JS     51 JE    100
WRF NUMBER OF TILES =   2
Timing for main: time 2016-08-29_09:00:02 on domain   3:   10.56603 elapsed seconds
Timing for main: time 2016-08-29_09:00:05 on domain   3:    1.52818 elapsed seconds
Timing for main: time 2016-08-29_09:00:05 on domain   2:   67.75940 elapsed seconds
Timing for main: time 2016-08-29_09:00:07 on domain   3:    1.52046 elapsed seconds
Timing for main: time 2016-08-29_09:00:10 on domain   3:    1.52913 elapsed seconds
Timing for main: time 2016-08-29_09:00:10 on domain   2:    5.07167 elapsed seconds
Timing for main: time 2016-08-29_09:00:12 on domain   3:    1.53550 elapsed seconds
Timing for main: time 2016-08-29_09:00:15 on domain   3:    1.53312 elapsed seconds
Timing for main: time 2016-08-29_09:00:15 on domain   2:    5.08691 elapsed seconds
Timing for main: time 2016-08-29_09:00:15 on domain   1:  117.81557 elapsed seconds
Timing for main: time 2016-08-29_09:00:17 on domain   3:    1.53747 elapsed seconds
Timing for main: time 2016-08-29_09:00:20 on domain   3:    1.53112 elapsed seconds
Timing for main: time 2016-08-29_09:00:20 on domain   2:    5.09139 elapsed seconds
Timing for main: time 2016-08-29_09:00:22 on domain   3:    1.53282 elapsed seconds
Timing for main: time 2016-08-29_09:00:25 on domain   3:    1.53803 elapsed seconds
Timing for main: time 2016-08-29_09:00:25 on domain   2:    5.06887 elapsed seconds
Timing for main: time 2016-08-29_09:00:27 on domain   3:    1.53027 elapsed seconds
Timing for main: time 2016-08-29_09:00:30 on domain   3:    1.53157 elapsed seconds
Timing for main: time 2016-08-29_09:00:30 on domain   2:    5.14409 elapsed seconds
Timing for main: time 2016-08-29_09:00:30 on domain   1:   17.33452 elapsed seconds
Timing for main: time 2016-08-29_09:00:32 on domain   3:    1.58975 elapsed seconds
Timing for main: time 2016-08-29_09:00:35 on domain   3:    1.52720 elapsed seconds
Timing for main: time 2016-08-29_09:00:35 on domain   2:    5.12570 elapsed seconds
Timing for main: time 2016-08-29_09:00:37 on domain   3:    1.55777 elapsed seconds
Timing for main: time 2016-08-29_09:00:40 on domain   3:    1.53428 elapsed seconds
Timing for main: time 2016-08-29_09:00:40 on domain   2:    5.11341 elapsed seconds
Timing for main: time 2016-08-29_09:00:42 on domain   3:    1.53394 elapsed seconds
Timing for main: time 2016-08-29_09:00:45 on domain   3:    1.53083 elapsed seconds
Timing for main: time 2016-08-29_09:00:45 on domain   2:    5.09036 elapsed seconds
Timing for main: time 2016-08-29_09:00:45 on domain   1:   17.31926 elapsed seconds
Timing for main: time 2016-08-29_09:00:47 on domain   3:    1.54787 elapsed seconds
Timing for main: time 2016-08-29_09:00:50 on domain   3:    1.53486 elapsed seconds
Timing for main: time 2016-08-29_09:00:50 on domain   2:    5.08954 elapsed seconds
Timing for main: time 2016-08-29_09:00:52 on domain   3:    1.54311 elapsed seconds
Timing for main: time 2016-08-29_09:00:55 on domain   3:    1.53132 elapsed seconds
Timing for main: time 2016-08-29_09:00:55 on domain   2:    5.09939 elapsed seconds
Timing for main: time 2016-08-29_09:00:57 on domain   3:    1.53811 elapsed seconds
Timing for main: time 2016-08-29_09:01:00 on domain   3:    1.53385 elapsed seconds
Timing for main: time 2016-08-29_09:01:00 on domain   2:    5.12237 elapsed seconds
Timing for main: time 2016-08-29_09:01:00 on domain   1:   17.30124 elapsed seconds
Timing for Writing ISC2021_WRF_VALIDATION_OUTPUT_01_2016-08-29_09:01:00 for domain        1:    1.64809 elapsed seconds
Timing for Writing ISC2021_WRF_VALIDATION_OUTPUT_02_2016-08-29_09:01:00 for domain        2:    1.51592 elapsed seconds
Timing for Writing ISC2021_WRF_VALIDATION_OUTPUT_03_2016-08-29_09:01:00 for domain        3:    2.15447 elapsed seconds
Timing for main: time 2016-08-29_09:01:02 on domain   3:    3.67722 elapsed seconds
Timing for main: time 2016-08-29_09:01:05 on domain   3:    1.53366 elapsed seconds
Timing for main: time 2016-08-29_09:01:05 on domain   2:    8.72999 elapsed seconds
Timing for main: time 2016-08-29_09:01:07 on domain   3:    1.53936 elapsed seconds
Timing for main: time 2016-08-29_09:01:10 on domain   3:    1.53182 elapsed seconds
Timing for main: time 2016-08-29_09:01:10 on domain   2:    5.09745 elapsed seconds
Timing for main: time 2016-08-29_09:01:12 on domain   3:    1.53606 elapsed seconds
Timing for main: time 2016-08-29_09:01:15 on domain   3:    1.53495 elapsed seconds
Timing for main: time 2016-08-29_09:01:15 on domain   2:    5.09553 elapsed seconds
Timing for main: time 2016-08-29_09:01:15 on domain   1:   22.46059 elapsed seconds
Timing for main: time 2016-08-29_09:01:17 on domain   3:    1.55189 elapsed seconds
Timing for main: time 2016-08-29_09:01:20 on domain   3:    1.53843 elapsed seconds
Timing for main: time 2016-08-29_09:01:20 on domain   2:    5.10694 elapsed seconds
Timing for main: time 2016-08-29_09:01:22 on domain   3:    1.53512 elapsed seconds
Timing for main: time 2016-08-29_09:01:25 on domain   3:    1.53938 elapsed seconds
Timing for main: time 2016-08-29_09:01:25 on domain   2:    5.09347 elapsed seconds
Timing for main: time 2016-08-29_09:01:27 on domain   3:    1.53743 elapsed seconds
Timing for main: time 2016-08-29_09:01:30 on domain   3:    1.53947 elapsed seconds
Timing for main: time 2016-08-29_09:01:30 on domain   2:    5.12121 elapsed seconds
Timing for main: time 2016-08-29_09:01:30 on domain   1:   17.37110 elapsed seconds
Timing for main: time 2016-08-29_09:01:32 on domain   3:    1.53778 elapsed seconds
Timing for main: time 2016-08-29_09:01:35 on domain   3:    1.53661 elapsed seconds
Timing for main: time 2016-08-29_09:01:35 on domain   2:    5.07507 elapsed seconds
Timing for main: time 2016-08-29_09:01:37 on domain   3:    1.54040 elapsed seconds
Timing for main: time 2016-08-29_09:01:40 on domain   3:    1.54720 elapsed seconds
Timing for main: time 2016-08-29_09:01:40 on domain   2:    5.11543 elapsed seconds
Timing for main: time 2016-08-29_09:01:42 on domain   3:    1.53872 elapsed seconds
Timing for main: time 2016-08-29_09:01:45 on domain   3:    1.53925 elapsed seconds
Timing for main: time 2016-08-29_09:01:45 on domain   2:    5.13447 elapsed seconds
Timing for main: time 2016-08-29_09:01:45 on domain   1:   17.33253 elapsed seconds
Timing for main: time 2016-08-29_09:01:47 on domain   3:    1.54375 elapsed seconds
Timing for main: time 2016-08-29_09:01:50 on domain   3:    1.53679 elapsed seconds
Timing for main: time 2016-08-29_09:01:50 on domain   2:    5.10418 elapsed seconds
Timing for main: time 2016-08-29_09:01:52 on domain   3:    1.52198 elapsed seconds
Timing for main: time 2016-08-29_09:01:55 on domain   3:    1.53993 elapsed seconds
Timing for main: time 2016-08-29_09:01:55 on domain   2:    5.11584 elapsed seconds
Timing for main: time 2016-08-29_09:01:57 on domain   3:    1.53461 elapsed seconds
Timing for main: time 2016-08-29_09:02:00 on domain   3:    1.53808 elapsed seconds
Timing for main: time 2016-08-29_09:02:00 on domain   2:    5.10069 elapsed seconds
Timing for main: time 2016-08-29_09:02:00 on domain   1:   17.32170 elapsed seconds
Timing for Writing ISC2021_WRF_VALIDATION_OUTPUT_01_2016-08-29_09:02:00 for domain        1:    1.61754 elapsed seconds
Timing for Writing ISC2021_WRF_VALIDATION_OUTPUT_02_2016-08-29_09:02:00 for domain        2:    1.45399 elapsed seconds
Timing for Writing ISC2021_WRF_VALIDATION_OUTPUT_03_2016-08-29_09:02:00 for domain        3:    2.18179 elapsed seconds
Timing for main: time 2016-08-29_09:02:02 on domain   3:    3.73446 elapsed seconds
Timing for main: time 2016-08-29_09:02:05 on domain   3:    1.57706 elapsed seconds
Timing for main: time 2016-08-29_09:02:05 on domain   2:    8.78556 elapsed seconds
Timing for main: time 2016-08-29_09:02:07 on domain   3:    1.53598 elapsed seconds
Timing for main: time 2016-08-29_09:02:10 on domain   3:    1.54096 elapsed seconds
Timing for main: time 2016-08-29_09:02:10 on domain   2:    5.12895 elapsed seconds
Timing for main: time 2016-08-29_09:02:12 on domain   3:    1.53354 elapsed seconds
Timing for main: time 2016-08-29_09:02:15 on domain   3:    1.55058 elapsed seconds
Timing for main: time 2016-08-29_09:02:15 on domain   2:    5.11477 elapsed seconds
Timing for main: time 2016-08-29_09:02:15 on domain   1:   22.52714 elapsed seconds
Timing for main: time 2016-08-29_09:02:17 on domain   3:    1.56860 elapsed seconds
Timing for main: time 2016-08-29_09:02:20 on domain   3:    1.57634 elapsed seconds
Timing for main: time 2016-08-29_09:02:20 on domain   2:    5.14226 elapsed seconds
Timing for main: time 2016-08-29_09:02:22 on domain   3:    1.53576 elapsed seconds
Timing for main: time 2016-08-29_09:02:25 on domain   3:    1.53089 elapsed seconds
Timing for main: time 2016-08-29_09:02:25 on domain   2:    5.13212 elapsed seconds
Timing for main: time 2016-08-29_09:02:27 on domain   3:    1.56383 elapsed seconds
Timing for main: time 2016-08-29_09:02:30 on domain   3:    1.60679 elapsed seconds
Timing for main: time 2016-08-29_09:02:30 on domain   2:    5.21412 elapsed seconds
Timing for main: time 2016-08-29_09:02:30 on domain   1:   17.45225 elapsed seconds
Timing for main: time 2016-08-29_09:02:32 on domain   3:    1.53711 elapsed seconds
Timing for main: time 2016-08-29_09:02:35 on domain   3:    1.56907 elapsed seconds
Timing for main: time 2016-08-29_09:02:35 on domain   2:    5.10601 elapsed seconds
Timing for main: time 2016-08-29_09:02:37 on domain   3:    1.57438 elapsed seconds
Timing for main: time 2016-08-29_09:02:40 on domain   3:    1.54420 elapsed seconds
Timing for main: time 2016-08-29_09:02:40 on domain   2:    5.13884 elapsed seconds
Timing for main: time 2016-08-29_09:02:42 on domain   3:    1.53963 elapsed seconds
Timing for main: time 2016-08-29_09:02:45 on domain   3:    1.53793 elapsed seconds
Timing for main: time 2016-08-29_09:02:45 on domain   2:    5.09138 elapsed seconds
Timing for main: time 2016-08-29_09:02:45 on domain   1:   17.32685 elapsed seconds
Timing for main: time 2016-08-29_09:02:47 on domain   3:    1.55202 elapsed seconds
Timing for main: time 2016-08-29_09:02:50 on domain   3:    1.53641 elapsed seconds
Timing for main: time 2016-08-29_09:02:50 on domain   2:    5.10994 elapsed seconds
Timing for main: time 2016-08-29_09:02:52 on domain   3:    1.63208 elapsed seconds
Timing for main: time 2016-08-29_09:02:55 on domain   3:    1.59346 elapsed seconds
Timing for main: time 2016-08-29_09:02:55 on domain   2:    5.24556 elapsed seconds
Timing for main: time 2016-08-29_09:02:57 on domain   3:    1.53678 elapsed seconds
Timing for main: time 2016-08-29_09:03:00 on domain   3:    1.53136 elapsed seconds
Timing for main: time 2016-08-29_09:03:00 on domain   2:    5.12192 elapsed seconds
Timing for main: time 2016-08-29_09:03:00 on domain   1:   17.44008 elapsed seconds
Timing for Writing ISC2021_WRF_VALIDATION_OUTPUT_01_2016-08-29_09:03:00 for domain        1:    1.63371 elapsed seconds
Timing for Writing ISC2021_WRF_VALIDATION_OUTPUT_02_2016-08-29_09:03:00 for domain        2:    1.51186 elapsed seconds
Timing for Writing ISC2021_WRF_VALIDATION_OUTPUT_03_2016-08-29_09:03:00 for domain        3:    2.16750 elapsed seconds
Timing for main: time 2016-08-29_09:03:02 on domain   3:   10.40877 elapsed seconds
Timing for main: time 2016-08-29_09:03:05 on domain   3:    1.53029 elapsed seconds
Timing for main: time 2016-08-29_09:03:05 on domain   2:   19.86408 elapsed seconds
Timing for main: time 2016-08-29_09:03:07 on domain   3:    1.55239 elapsed seconds
Timing for main: time 2016-08-29_09:03:10 on domain   3:    1.52951 elapsed seconds
Timing for main: time 2016-08-29_09:03:10 on domain   2:    5.10577 elapsed seconds
Timing for main: time 2016-08-29_09:03:12 on domain   3:    1.53927 elapsed seconds
Timing for main: time 2016-08-29_09:03:15 on domain   3:    1.53968 elapsed seconds
Timing for main: time 2016-08-29_09:03:15 on domain   2:    5.09897 elapsed seconds
Timing for main: time 2016-08-29_09:03:15 on domain   1:   38.71825 elapsed seconds
Timing for main: time 2016-08-29_09:03:17 on domain   3:    1.53630 elapsed seconds
Timing for main: time 2016-08-29_09:03:20 on domain   3:    1.59567 elapsed seconds
Timing for main: time 2016-08-29_09:03:20 on domain   2:    5.13731 elapsed seconds
Timing for main: time 2016-08-29_09:03:22 on domain   3:    1.53451 elapsed seconds
Timing for main: time 2016-08-29_09:03:25 on domain   3:    1.53213 elapsed seconds
Timing for main: time 2016-08-29_09:03:25 on domain   2:    5.10888 elapsed seconds
Timing for main: time 2016-08-29_09:03:27 on domain   3:    1.53664 elapsed seconds
Timing for main: time 2016-08-29_09:03:30 on domain   3:    1.53635 elapsed seconds
Timing for main: time 2016-08-29_09:03:30 on domain   2:    5.07128 elapsed seconds
Timing for main: time 2016-08-29_09:03:30 on domain   1:   17.30325 elapsed seconds
Timing for main: time 2016-08-29_09:03:32 on domain   3:    1.53778 elapsed seconds
Timing for main: time 2016-08-29_09:03:35 on domain   3:    1.55612 elapsed seconds
Timing for main: time 2016-08-29_09:03:35 on domain   2:    5.09853 elapsed seconds
Timing for main: time 2016-08-29_09:03:37 on domain   3:    1.53521 elapsed seconds
Timing for main: time 2016-08-29_09:03:40 on domain   3:    1.57319 elapsed seconds
Timing for main: time 2016-08-29_09:03:40 on domain   2:    5.18414 elapsed seconds
Timing for main: time 2016-08-29_09:03:42 on domain   3:    1.52456 elapsed seconds
Timing for main: time 2016-08-29_09:03:45 on domain   3:    1.53689 elapsed seconds
Timing for main: time 2016-08-29_09:03:45 on domain   2:    5.11166 elapsed seconds
Timing for main: time 2016-08-29_09:03:45 on domain   1:   17.40297 elapsed seconds
Timing for main: time 2016-08-29_09:03:47 on domain   3:    1.53945 elapsed seconds
Timing for main: time 2016-08-29_09:03:50 on domain   3:    1.53696 elapsed seconds
Timing for main: time 2016-08-29_09:03:50 on domain   2:    5.08653 elapsed seconds
Timing for main: time 2016-08-29_09:03:52 on domain   3:    1.55013 elapsed seconds
Timing for main: time 2016-08-29_09:03:55 on domain   3:    1.53529 elapsed seconds
Timing for main: time 2016-08-29_09:03:55 on domain   2:    5.11290 elapsed seconds
Timing for main: time 2016-08-29_09:03:57 on domain   3:    1.53697 elapsed seconds
Timing for main: time 2016-08-29_09:04:00 on domain   3:    1.53643 elapsed seconds
Timing for main: time 2016-08-29_09:04:00 on domain   2:    5.09780 elapsed seconds
Timing for main: time 2016-08-29_09:04:00 on domain   1:   17.28108 elapsed seconds
Timing for Writing ISC2021_WRF_VALIDATION_OUTPUT_01_2016-08-29_09:04:00 for domain        1:    1.61008 elapsed seconds
Timing for Writing ISC2021_WRF_VALIDATION_OUTPUT_02_2016-08-29_09:04:00 for domain        2:    1.47030 elapsed seconds
Timing for Writing ISC2021_WRF_VALIDATION_OUTPUT_03_2016-08-29_09:04:00 for domain        3:    2.15057 elapsed seconds
Timing for main: time 2016-08-29_09:04:02 on domain   3:    3.66772 elapsed seconds
Timing for main: time 2016-08-29_09:04:05 on domain   3:    1.53718 elapsed seconds
Timing for main: time 2016-08-29_09:04:05 on domain   2:    8.65619 elapsed seconds
Timing for main: time 2016-08-29_09:04:07 on domain   3:    1.51807 elapsed seconds
Timing for main: time 2016-08-29_09:04:10 on domain   3:    1.53623 elapsed seconds
Timing for main: time 2016-08-29_09:04:10 on domain   2:    5.15723 elapsed seconds
Timing for main: time 2016-08-29_09:04:12 on domain   3:    1.51913 elapsed seconds
Timing for main: time 2016-08-29_09:04:15 on domain   3:    1.53427 elapsed seconds
Timing for main: time 2016-08-29_09:04:15 on domain   2:    5.11300 elapsed seconds
Timing for main: time 2016-08-29_09:04:15 on domain   1:   22.42670 elapsed seconds
Timing for main: time 2016-08-29_09:04:17 on domain   3:    1.53638 elapsed seconds
Timing for main: time 2016-08-29_09:04:20 on domain   3:    1.53268 elapsed seconds
Timing for main: time 2016-08-29_09:04:20 on domain   2:    5.08011 elapsed seconds
Timing for main: time 2016-08-29_09:04:22 on domain   3:    1.53350 elapsed seconds
Timing for main: time 2016-08-29_09:04:25 on domain   3:    1.56262 elapsed seconds
Timing for main: time 2016-08-29_09:04:25 on domain   2:    5.14646 elapsed seconds
Timing for main: time 2016-08-29_09:04:27 on domain   3:    1.52346 elapsed seconds
Timing for main: time 2016-08-29_09:04:30 on domain   3:    1.53277 elapsed seconds
Timing for main: time 2016-08-29_09:04:30 on domain   2:    5.15936 elapsed seconds
Timing for main: time 2016-08-29_09:04:30 on domain   1:   17.38681 elapsed seconds
Timing for main: time 2016-08-29_09:04:32 on domain   3:    1.53799 elapsed seconds
Timing for main: time 2016-08-29_09:04:35 on domain   3:    1.53270 elapsed seconds
Timing for main: time 2016-08-29_09:04:35 on domain   2:    5.07708 elapsed seconds
Timing for main: time 2016-08-29_09:04:37 on domain   3:    1.58121 elapsed seconds
Timing for main: time 2016-08-29_09:04:40 on domain   3:    1.53651 elapsed seconds
Timing for main: time 2016-08-29_09:04:40 on domain   2:    5.16185 elapsed seconds
Timing for main: time 2016-08-29_09:04:42 on domain   3:    1.56947 elapsed seconds
Timing for main: time 2016-08-29_09:04:45 on domain   3:    1.53408 elapsed seconds
Timing for main: time 2016-08-29_09:04:45 on domain   2:    5.15646 elapsed seconds
Timing for main: time 2016-08-29_09:04:45 on domain   1:   17.38174 elapsed seconds
Timing for main: time 2016-08-29_09:04:47 on domain   3:    1.54912 elapsed seconds
Timing for main: time 2016-08-29_09:04:50 on domain   3:    1.53432 elapsed seconds
Timing for main: time 2016-08-29_09:04:50 on domain   2:    5.09392 elapsed seconds
Timing for main: time 2016-08-29_09:04:52 on domain   3:    1.59937 elapsed seconds
Timing for main: time 2016-08-29_09:04:55 on domain   3:    1.53686 elapsed seconds
Timing for main: time 2016-08-29_09:04:55 on domain   2:    5.15975 elapsed seconds
Timing for main: time 2016-08-29_09:04:57 on domain   3:    1.53794 elapsed seconds
Timing for main: time 2016-08-29_09:05:00 on domain   3:    1.56479 elapsed seconds
Timing for main: time 2016-08-29_09:05:00 on domain   2:    5.15770 elapsed seconds
Timing for main: time 2016-08-29_09:05:00 on domain   1:   17.36197 elapsed seconds
Timing for Writing ISC2021_WRF_VALIDATION_OUTPUT_01_2016-08-29_09:05:00 for domain        1:    1.66453 elapsed seconds
Timing for Writing ISC2021_WRF_VALIDATION_OUTPUT_02_2016-08-29_09:05:00 for domain        2:    1.49658 elapsed seconds
Timing for Writing ISC2021_WRF_VALIDATION_OUTPUT_03_2016-08-29_09:05:00 for domain        3:    2.17895 elapsed seconds
Timing for main: time 2016-08-29_09:05:02 on domain   3:    3.70119 elapsed seconds
Timing for main: time 2016-08-29_09:05:05 on domain   3:    1.53863 elapsed seconds
Timing for main: time 2016-08-29_09:05:05 on domain   2:    8.71332 elapsed seconds
Timing for main: time 2016-08-29_09:05:07 on domain   3:    1.56174 elapsed seconds
Timing for main: time 2016-08-29_09:05:10 on domain   3:    1.60441 elapsed seconds
Timing for main: time 2016-08-29_09:05:10 on domain   2:    5.19167 elapsed seconds
Timing for main: time 2016-08-29_09:05:12 on domain   3:    1.54279 elapsed seconds
Timing for main: time 2016-08-29_09:05:15 on domain   3:    1.55575 elapsed seconds
Timing for main: time 2016-08-29_09:05:15 on domain   2:    5.14931 elapsed seconds
Timing for main: time 2016-08-29_09:05:15 on domain   1:   22.60725 elapsed seconds
Timing for main: time 2016-08-29_09:05:17 on domain   3:    1.53193 elapsed seconds
Timing for main: time 2016-08-29_09:05:20 on domain   3:    1.53946 elapsed seconds
Timing for main: time 2016-08-29_09:05:20 on domain   2:    5.07824 elapsed seconds
Timing for main: time 2016-08-29_09:05:22 on domain   3:    1.54006 elapsed seconds
Timing for main: time 2016-08-29_09:05:25 on domain   3:    1.53383 elapsed seconds
Timing for main: time 2016-08-29_09:05:25 on domain   2:    5.09013 elapsed seconds
Timing for main: time 2016-08-29_09:05:27 on domain   3:    1.58119 elapsed seconds
Timing for main: time 2016-08-29_09:05:30 on domain   3:    1.53394 elapsed seconds
Timing for main: time 2016-08-29_09:05:30 on domain   2:    5.16774 elapsed seconds
Timing for main: time 2016-08-29_09:05:30 on domain   1:   17.29746 elapsed seconds
Timing for main: time 2016-08-29_09:05:32 on domain   3:    1.53595 elapsed seconds
Timing for main: time 2016-08-29_09:05:35 on domain   3:    1.53399 elapsed seconds
Timing for main: time 2016-08-29_09:05:35 on domain   2:    5.07303 elapsed seconds
Timing for main: time 2016-08-29_09:05:37 on domain   3:    1.53280 elapsed seconds
Timing for main: time 2016-08-29_09:05:40 on domain   3:    1.53261 elapsed seconds
Timing for main: time 2016-08-29_09:05:40 on domain   2:    5.08659 elapsed seconds
Timing for main: time 2016-08-29_09:05:42 on domain   3:    1.58692 elapsed seconds
Timing for main: time 2016-08-29_09:05:45 on domain   3:    1.53663 elapsed seconds
Timing for main: time 2016-08-29_09:05:45 on domain   2:    5.15112 elapsed seconds
Timing for main: time 2016-08-29_09:05:45 on domain   1:   17.33690 elapsed seconds
Timing for main: time 2016-08-29_09:05:47 on domain   3:    1.51935 elapsed seconds
Timing for main: time 2016-08-29_09:05:50 on domain   3:    1.53418 elapsed seconds
Timing for main: time 2016-08-29_09:05:50 on domain   2:    5.11785 elapsed seconds
Timing for main: time 2016-08-29_09:05:52 on domain   3:    1.52013 elapsed seconds
Timing for main: time 2016-08-29_09:05:55 on domain   3:    1.56780 elapsed seconds
Timing for main: time 2016-08-29_09:05:55 on domain   2:    5.16061 elapsed seconds
Timing for main: time 2016-08-29_09:05:57 on domain   3:    1.53723 elapsed seconds
Timing for main: time 2016-08-29_09:06:00 on domain   3:    1.53499 elapsed seconds
Timing for main: time 2016-08-29_09:06:00 on domain   2:    5.09739 elapsed seconds
Timing for main: time 2016-08-29_09:06:00 on domain   1:   17.34460 elapsed seconds
Timing for main: time 2016-08-29_09:06:02 on domain   3:    8.31280 elapsed seconds
Timing for main: time 2016-08-29_09:06:05 on domain   3:    1.54687 elapsed seconds
Timing for main: time 2016-08-29_09:06:05 on domain   2:   16.36083 elapsed seconds
Timing for main: time 2016-08-29_09:06:07 on domain   3:    1.53219 elapsed seconds
Timing for main: time 2016-08-29_09:06:10 on domain   3:    1.53504 elapsed seconds
Timing for main: time 2016-08-29_09:06:10 on domain   2:    5.12695 elapsed seconds
Timing for main: time 2016-08-29_09:06:12 on domain   3:    1.60463 elapsed seconds
Timing for main: time 2016-08-29_09:06:15 on domain   3:    1.53598 elapsed seconds
Timing for main: time 2016-08-29_09:06:15 on domain   2:    5.16571 elapsed seconds
Timing for main: time 2016-08-29_09:06:15 on domain   1:   33.85078 elapsed seconds
Timing for main: time 2016-08-29_09:06:17 on domain   3:    1.54049 elapsed seconds
Timing for main: time 2016-08-29_09:06:20 on domain   3:    1.53730 elapsed seconds
Timing for main: time 2016-08-29_09:06:20 on domain   2:    5.07871 elapsed seconds
Timing for main: time 2016-08-29_09:06:22 on domain   3:    1.54146 elapsed seconds
Timing for main: time 2016-08-29_09:06:25 on domain   3:    1.53755 elapsed seconds
Timing for main: time 2016-08-29_09:06:25 on domain   2:    5.09833 elapsed seconds
Timing for main: time 2016-08-29_09:06:27 on domain   3:    1.53492 elapsed seconds
Timing for main: time 2016-08-29_09:06:30 on domain   3:    1.53581 elapsed seconds
Timing for main: time 2016-08-29_09:06:30 on domain   2:    5.12625 elapsed seconds
Timing for main: time 2016-08-29_09:06:30 on domain   1:   17.26858 elapsed seconds
Timing for main: time 2016-08-29_09:06:32 on domain   3:    1.53612 elapsed seconds
Timing for main: time 2016-08-29_09:06:35 on domain   3:    1.53652 elapsed seconds
Timing for main: time 2016-08-29_09:06:35 on domain   2:    5.08461 elapsed seconds
Timing for main: time 2016-08-29_09:06:37 on domain   3:    1.53971 elapsed seconds
Timing for main: time 2016-08-29_09:06:40 on domain   3:    1.55869 elapsed seconds
Timing for main: time 2016-08-29_09:06:40 on domain   2:    5.12883 elapsed seconds
Timing for main: time 2016-08-29_09:06:42 on domain   3:    1.59520 elapsed seconds
Timing for main: time 2016-08-29_09:06:45 on domain   3:    1.57234 elapsed seconds
Timing for main: time 2016-08-29_09:06:45 on domain   2:    5.19019 elapsed seconds
Timing for main: time 2016-08-29_09:06:45 on domain   1:   17.39595 elapsed seconds
Timing for main: time 2016-08-29_09:06:47 on domain   3:    1.52003 elapsed seconds
Timing for main: time 2016-08-29_09:06:50 on domain   3:    1.53340 elapsed seconds
Timing for main: time 2016-08-29_09:06:50 on domain   2:    5.10018 elapsed seconds
Timing for main: time 2016-08-29_09:06:52 on domain   3:    1.53214 elapsed seconds
Timing for main: time 2016-08-29_09:06:55 on domain   3:    1.53874 elapsed seconds
Timing for main: time 2016-08-29_09:06:55 on domain   2:    5.09886 elapsed seconds
Timing for main: time 2016-08-29_09:06:57 on domain   3:    1.53328 elapsed seconds
Timing for main: time 2016-08-29_09:07:00 on domain   3:    1.53885 elapsed seconds
Timing for main: time 2016-08-29_09:07:00 on domain   2:    5.10051 elapsed seconds
Timing for main: time 2016-08-29_09:07:00 on domain   1:   17.30374 elapsed seconds
Timing for main: time 2016-08-29_09:07:02 on domain   3:    1.53493 elapsed seconds
Timing for main: time 2016-08-29_09:07:05 on domain   3:    1.54871 elapsed seconds
Timing for main: time 2016-08-29_09:07:05 on domain   2:    5.07910 elapsed seconds
Timing for main: time 2016-08-29_09:07:07 on domain   3:    1.57601 elapsed seconds
Timing for main: time 2016-08-29_09:07:10 on domain   3:    1.53640 elapsed seconds
Timing for main: time 2016-08-29_09:07:10 on domain   2:    5.13869 elapsed seconds
Timing for main: time 2016-08-29_09:07:12 on domain   3:    1.54584 elapsed seconds
Timing for main: time 2016-08-29_09:07:15 on domain   3:    1.53754 elapsed seconds
Timing for main: time 2016-08-29_09:07:15 on domain   2:    5.10967 elapsed seconds
Timing for main: time 2016-08-29_09:07:15 on domain   1:   17.35634 elapsed seconds
Timing for main: time 2016-08-29_09:07:17 on domain   3:    1.53202 elapsed seconds
Timing for main: time 2016-08-29_09:07:20 on domain   3:    1.53849 elapsed seconds
Timing for main: time 2016-08-29_09:07:20 on domain   2:    5.09303 elapsed seconds
Timing for main: time 2016-08-29_09:07:22 on domain   3:    1.53467 elapsed seconds
Timing for main: time 2016-08-29_09:07:25 on domain   3:    1.57229 elapsed seconds
Timing for main: time 2016-08-29_09:07:25 on domain   2:    5.13416 elapsed seconds
Timing for main: time 2016-08-29_09:07:27 on domain   3:    1.54107 elapsed seconds
Timing for main: time 2016-08-29_09:07:30 on domain   3:    1.54039 elapsed seconds
Timing for main: time 2016-08-29_09:07:30 on domain   2:    5.10869 elapsed seconds
Timing for main: time 2016-08-29_09:07:30 on domain   1:   17.35961 elapsed seconds
Timing for main: time 2016-08-29_09:07:32 on domain   3:    1.57863 elapsed seconds
Timing for main: time 2016-08-29_09:07:35 on domain   3:    1.53867 elapsed seconds
Timing for main: time 2016-08-29_09:07:35 on domain   2:    5.12495 elapsed seconds
Timing for main: time 2016-08-29_09:07:37 on domain   3:    1.55554 elapsed seconds
Timing for main: time 2016-08-29_09:07:40 on domain   3:    1.55018 elapsed seconds
Timing for main: time 2016-08-29_09:07:40 on domain   2:    5.13427 elapsed seconds
Timing for main: time 2016-08-29_09:07:42 on domain   3:    1.53635 elapsed seconds
Timing for main: time 2016-08-29_09:07:45 on domain   3:    1.53795 elapsed seconds
Timing for main: time 2016-08-29_09:07:45 on domain   2:    5.10309 elapsed seconds
Timing for main: time 2016-08-29_09:07:45 on domain   1:   17.38623 elapsed seconds
Timing for main: time 2016-08-29_09:07:47 on domain   3:    1.53578 elapsed seconds
Timing for main: time 2016-08-29_09:07:50 on domain   3:    1.54774 elapsed seconds
Timing for main: time 2016-08-29_09:07:50 on domain   2:    5.08833 elapsed seconds
Timing for main: time 2016-08-29_09:07:52 on domain   3:    1.53765 elapsed seconds
Timing for main: time 2016-08-29_09:07:55 on domain   3:    1.53475 elapsed seconds
Timing for main: time 2016-08-29_09:07:55 on domain   2:    5.10178 elapsed seconds
Timing for main: time 2016-08-29_09:07:57 on domain   3:    1.54239 elapsed seconds
Timing for main: time 2016-08-29_09:08:00 on domain   3:    1.53796 elapsed seconds
Timing for main: time 2016-08-29_09:08:00 on domain   2:    5.10401 elapsed seconds
Timing for main: time 2016-08-29_09:08:00 on domain   1:   17.35944 elapsed seconds
Timing for main: time 2016-08-29_09:08:02 on domain   3:    1.54232 elapsed seconds
Timing for main: time 2016-08-29_09:08:05 on domain   3:    1.53523 elapsed seconds
Timing for main: time 2016-08-29_09:08:05 on domain   2:    5.08081 elapsed seconds
Timing for main: time 2016-08-29_09:08:07 on domain   3:    1.53505 elapsed seconds
Timing for main: time 2016-08-29_09:08:10 on domain   3:    1.53539 elapsed seconds
Timing for main: time 2016-08-29_09:08:10 on domain   2:    5.12357 elapsed seconds
Timing for main: time 2016-08-29_09:08:12 on domain   3:    1.53193 elapsed seconds
Timing for main: time 2016-08-29_09:08:15 on domain   3:    1.53440 elapsed seconds
Timing for main: time 2016-08-29_09:08:15 on domain   2:    5.09071 elapsed seconds
Timing for main: time 2016-08-29_09:08:15 on domain   1:   17.27202 elapsed seconds
Timing for main: time 2016-08-29_09:08:17 on domain   3:    1.53250 elapsed seconds
Timing for main: time 2016-08-29_09:08:20 on domain   3:    1.53519 elapsed seconds
Timing for main: time 2016-08-29_09:08:20 on domain   2:    5.07415 elapsed seconds
Timing for main: time 2016-08-29_09:08:22 on domain   3:    1.57273 elapsed seconds
Timing for main: time 2016-08-29_09:08:25 on domain   3:    1.53444 elapsed seconds
Timing for main: time 2016-08-29_09:08:25 on domain   2:    5.17074 elapsed seconds
Timing for main: time 2016-08-29_09:08:27 on domain   3:    1.55668 elapsed seconds
Timing for main: time 2016-08-29_09:08:30 on domain   3:    1.53371 elapsed seconds
Timing for main: time 2016-08-29_09:08:30 on domain   2:    5.11929 elapsed seconds
Timing for main: time 2016-08-29_09:08:30 on domain   1:   17.37997 elapsed seconds
Timing for main: time 2016-08-29_09:08:32 on domain   3:    1.53367 elapsed seconds
Timing for main: time 2016-08-29_09:08:35 on domain   3:    1.53412 elapsed seconds
Timing for main: time 2016-08-29_09:08:35 on domain   2:    5.07819 elapsed seconds
Timing for main: time 2016-08-29_09:08:37 on domain   3:    1.53453 elapsed seconds
Timing for main: time 2016-08-29_09:08:40 on domain   3:    1.53318 elapsed seconds
Timing for main: time 2016-08-29_09:08:40 on domain   2:    5.12357 elapsed seconds
Timing for main: time 2016-08-29_09:08:42 on domain   3:    1.54187 elapsed seconds
Timing for main: time 2016-08-29_09:08:45 on domain   3:    1.53553 elapsed seconds
Timing for main: time 2016-08-29_09:08:45 on domain   2:    5.13973 elapsed seconds
Timing for main: time 2016-08-29_09:08:45 on domain   1:   17.34094 elapsed seconds
Timing for main: time 2016-08-29_09:08:47 on domain   3:    1.58778 elapsed seconds
Timing for main: time 2016-08-29_09:08:50 on domain   3:    1.53692 elapsed seconds
Timing for main: time 2016-08-29_09:08:50 on domain   2:    5.13073 elapsed seconds
Timing for main: time 2016-08-29_09:08:52 on domain   3:    1.54034 elapsed seconds
Timing for main: time 2016-08-29_09:08:55 on domain   3:    1.53153 elapsed seconds
Timing for main: time 2016-08-29_09:08:55 on domain   2:    5.10208 elapsed seconds
Timing for main: time 2016-08-29_09:08:57 on domain   3:    1.53366 elapsed seconds
Timing for main: time 2016-08-29_09:09:00 on domain   3:    1.53453 elapsed seconds
Timing for main: time 2016-08-29_09:09:00 on domain   2:    5.11045 elapsed seconds
Timing for main: time 2016-08-29_09:09:00 on domain   1:   17.34504 elapsed seconds
Timing for main: time 2016-08-29_09:09:02 on domain   3:    8.34885 elapsed seconds
Timing for main: time 2016-08-29_09:09:05 on domain   3:    1.54153 elapsed seconds
Timing for main: time 2016-08-29_09:09:05 on domain   2:   16.36169 elapsed seconds
Timing for main: time 2016-08-29_09:09:07 on domain   3:    1.54952 elapsed seconds
Timing for main: time 2016-08-29_09:09:10 on domain   3:    1.53181 elapsed seconds
Timing for main: time 2016-08-29_09:09:10 on domain   2:    5.12154 elapsed seconds
Timing for main: time 2016-08-29_09:09:12 on domain   3:    1.53004 elapsed seconds
Timing for main: time 2016-08-29_09:09:15 on domain   3:    1.53012 elapsed seconds
Timing for main: time 2016-08-29_09:09:15 on domain   2:    5.08222 elapsed seconds
Timing for main: time 2016-08-29_09:09:15 on domain   1:   33.78469 elapsed seconds
Timing for main: time 2016-08-29_09:09:17 on domain   3:    1.53039 elapsed seconds
Timing for main: time 2016-08-29_09:09:20 on domain   3:    1.53107 elapsed seconds
Timing for main: time 2016-08-29_09:09:20 on domain   2:    5.09995 elapsed seconds
Timing for main: time 2016-08-29_09:09:22 on domain   3:    1.53194 elapsed seconds
Timing for main: time 2016-08-29_09:09:25 on domain   3:    1.53093 elapsed seconds
Timing for main: time 2016-08-29_09:09:25 on domain   2:    5.10483 elapsed seconds
Timing for main: time 2016-08-29_09:09:27 on domain   3:    1.55018 elapsed seconds
Timing for main: time 2016-08-29_09:09:30 on domain   3:    1.52941 elapsed seconds
Timing for main: time 2016-08-29_09:09:30 on domain   2:    5.10396 elapsed seconds
Timing for main: time 2016-08-29_09:09:30 on domain   1:   17.30817 elapsed seconds
Timing for main: time 2016-08-29_09:09:32 on domain   3:    1.54150 elapsed seconds
Timing for main: time 2016-08-29_09:09:35 on domain   3:    1.53507 elapsed seconds
Timing for main: time 2016-08-29_09:09:35 on domain   2:    5.07916 elapsed seconds
Timing for main: time 2016-08-29_09:09:37 on domain   3:    1.53470 elapsed seconds
Timing for main: time 2016-08-29_09:09:40 on domain   3:    1.53415 elapsed seconds
Timing for main: time 2016-08-29_09:09:40 on domain   2:    5.17065 elapsed seconds
Timing for main: time 2016-08-29_09:09:42 on domain   3:    1.53404 elapsed seconds
Timing for main: time 2016-08-29_09:09:45 on domain   3:    1.53467 elapsed seconds
Timing for main: time 2016-08-29_09:09:45 on domain   2:    5.08930 elapsed seconds
Timing for main: time 2016-08-29_09:09:45 on domain   1:   17.36124 elapsed seconds
Timing for main: time 2016-08-29_09:09:47 on domain   3:    1.53373 elapsed seconds
Timing for main: time 2016-08-29_09:09:50 on domain   3:    1.53629 elapsed seconds
Timing for main: time 2016-08-29_09:09:50 on domain   2:    5.07356 elapsed seconds
Timing for main: time 2016-08-29_09:09:52 on domain   3:    1.53926 elapsed seconds
Timing for main: time 2016-08-29_09:09:55 on domain   3:    1.53650 elapsed seconds
Timing for main: time 2016-08-29_09:09:55 on domain   2:    5.09579 elapsed seconds
Timing for main: time 2016-08-29_09:09:57 on domain   3:    1.54395 elapsed seconds
Timing for main: time 2016-08-29_09:10:00 on domain   3:    1.53711 elapsed seconds
Timing for main: time 2016-08-29_09:10:00 on domain   2:    5.11723 elapsed seconds
Timing for main: time 2016-08-29_09:10:00 on domain   1:   17.28403 elapsed seconds
Timing for main: time 2016-08-29_09:10:02 on domain   3:    1.55615 elapsed seconds
Timing for main: time 2016-08-29_09:10:05 on domain   3:    1.54131 elapsed seconds
Timing for main: time 2016-08-29_09:10:05 on domain   2:    5.10521 elapsed seconds
Timing for main: time 2016-08-29_09:10:07 on domain   3:    1.53621 elapsed seconds
Timing for main: time 2016-08-29_09:10:10 on domain   3:    1.53677 elapsed seconds
Timing for main: time 2016-08-29_09:10:10 on domain   2:    5.13648 elapsed seconds
Timing for main: time 2016-08-29_09:10:12 on domain   3:    1.58867 elapsed seconds
Timing for main: time 2016-08-29_09:10:15 on domain   3:    1.53685 elapsed seconds
Timing for main: time 2016-08-29_09:10:15 on domain   2:    5.14923 elapsed seconds
Timing for main: time 2016-08-29_09:10:15 on domain   1:   17.37448 elapsed seconds
Timing for main: time 2016-08-29_09:10:17 on domain   3:    1.55981 elapsed seconds
Timing for main: time 2016-08-29_09:10:20 on domain   3:    1.53560 elapsed seconds
Timing for main: time 2016-08-29_09:10:20 on domain   2:    5.10457 elapsed seconds
Timing for main: time 2016-08-29_09:10:22 on domain   3:    1.55137 elapsed seconds
Timing for main: time 2016-08-29_09:10:25 on domain   3:    1.54008 elapsed seconds
Timing for main: time 2016-08-29_09:10:25 on domain   2:    5.11127 elapsed seconds
Timing for main: time 2016-08-29_09:10:27 on domain   3:    1.54256 elapsed seconds
Timing for main: time 2016-08-29_09:10:30 on domain   3:    1.53928 elapsed seconds
Timing for main: time 2016-08-29_09:10:30 on domain   2:    5.11397 elapsed seconds
Timing for main: time 2016-08-29_09:10:30 on domain   1:   17.32902 elapsed seconds
Timing for main: time 2016-08-29_09:10:32 on domain   3:    1.53918 elapsed seconds
Timing for main: time 2016-08-29_09:10:35 on domain   3:    1.53820 elapsed seconds
Timing for main: time 2016-08-29_09:10:35 on domain   2:    5.08411 elapsed seconds
Timing for main: time 2016-08-29_09:10:37 on domain   3:    1.59178 elapsed seconds
Timing for main: time 2016-08-29_09:10:40 on domain   3:    1.55726 elapsed seconds
Timing for main: time 2016-08-29_09:10:40 on domain   2:    5.17562 elapsed seconds
Timing for main: time 2016-08-29_09:10:42 on domain   3:    1.54096 elapsed seconds
Timing for main: time 2016-08-29_09:10:45 on domain   3:    1.53929 elapsed seconds
Timing for main: time 2016-08-29_09:10:45 on domain   2:    5.12794 elapsed seconds
Timing for main: time 2016-08-29_09:10:45 on domain   1:   17.38882 elapsed seconds
Timing for main: time 2016-08-29_09:10:47 on domain   3:    1.53813 elapsed seconds
Timing for main: time 2016-08-29_09:10:50 on domain   3:    1.53587 elapsed seconds
Timing for main: time 2016-08-29_09:10:50 on domain   2:    5.08245 elapsed seconds
Timing for main: time 2016-08-29_09:10:52 on domain   3:    1.54288 elapsed seconds
Timing for main: time 2016-08-29_09:10:55 on domain   3:    1.53607 elapsed seconds
Timing for main: time 2016-08-29_09:10:55 on domain   2:    5.15061 elapsed seconds
Timing for main: time 2016-08-29_09:10:57 on domain   3:    1.54297 elapsed seconds
Timing for main: time 2016-08-29_09:11:00 on domain   3:    1.59445 elapsed seconds
Timing for main: time 2016-08-29_09:11:00 on domain   2:    5.22707 elapsed seconds
Timing for main: time 2016-08-29_09:11:00 on domain   1:   17.43075 elapsed seconds
Timing for main: time 2016-08-29_09:11:02 on domain   3:    1.54382 elapsed seconds
Timing for main: time 2016-08-29_09:11:05 on domain   3:    1.53735 elapsed seconds
Timing for main: time 2016-08-29_09:11:05 on domain   2:    5.08722 elapsed seconds
Timing for main: time 2016-08-29_09:11:07 on domain   3:    1.53826 elapsed seconds
Timing for main: time 2016-08-29_09:11:10 on domain   3:    1.53532 elapsed seconds
Timing for main: time 2016-08-29_09:11:10 on domain   2:    5.16189 elapsed seconds
Timing for main: time 2016-08-29_09:11:12 on domain   3:    1.54370 elapsed seconds
Timing for main: time 2016-08-29_09:11:15 on domain   3:    1.53800 elapsed seconds
Timing for main: time 2016-08-29_09:11:15 on domain   2:    5.12369 elapsed seconds
Timing for main: time 2016-08-29_09:11:15 on domain   1:   17.38603 elapsed seconds
Timing for main: time 2016-08-29_09:11:17 on domain   3:    1.51974 elapsed seconds
Timing for main: time 2016-08-29_09:11:20 on domain   3:    1.53562 elapsed seconds
Timing for main: time 2016-08-29_09:11:20 on domain   2:    5.10510 elapsed seconds
Timing for main: time 2016-08-29_09:11:22 on domain   3:    1.52869 elapsed seconds
Timing for main: time 2016-08-29_09:11:25 on domain   3:    1.53433 elapsed seconds
Timing for main: time 2016-08-29_09:11:25 on domain   2:    5.13673 elapsed seconds
Timing for main: time 2016-08-29_09:11:27 on domain   3:    1.58175 elapsed seconds
Timing for main: time 2016-08-29_09:11:30 on domain   3:    1.54193 elapsed seconds
Timing for main: time 2016-08-29_09:11:30 on domain   2:    5.18397 elapsed seconds
Timing for main: time 2016-08-29_09:11:30 on domain   1:   17.40709 elapsed seconds
Timing for main: time 2016-08-29_09:11:32 on domain   3:    1.54156 elapsed seconds
Timing for main: time 2016-08-29_09:11:35 on domain   3:    1.53595 elapsed seconds
Timing for main: time 2016-08-29_09:11:35 on domain   2:    5.08173 elapsed seconds
Timing for main: time 2016-08-29_09:11:37 on domain   3:    1.56253 elapsed seconds
Timing for main: time 2016-08-29_09:11:40 on domain   3:    1.54185 elapsed seconds
Timing for main: time 2016-08-29_09:11:40 on domain   2:    5.14057 elapsed seconds
Timing for main: time 2016-08-29_09:11:42 on domain   3:    1.53087 elapsed seconds
Timing for main: time 2016-08-29_09:11:45 on domain   3:    1.53646 elapsed seconds
Timing for main: time 2016-08-29_09:11:45 on domain   2:    5.14557 elapsed seconds
Timing for main: time 2016-08-29_09:11:45 on domain   1:   17.33221 elapsed seconds
Timing for main: time 2016-08-29_09:11:47 on domain   3:    1.53877 elapsed seconds
Timing for main: time 2016-08-29_09:11:50 on domain   3:    1.53931 elapsed seconds
Timing for main: time 2016-08-29_09:11:50 on domain   2:    5.07912 elapsed seconds
Timing for main: time 2016-08-29_09:11:52 on domain   3:    1.54731 elapsed seconds
Timing for main: time 2016-08-29_09:11:55 on domain   3:    1.53882 elapsed seconds
Timing for main: time 2016-08-29_09:11:55 on domain   2:    5.10999 elapsed seconds
Timing for main: time 2016-08-29_09:11:57 on domain   3:    1.54717 elapsed seconds
Timing for main: time 2016-08-29_09:12:00 on domain   3:    1.53864 elapsed seconds
Timing for main: time 2016-08-29_09:12:00 on domain   2:    5.12459 elapsed seconds
Timing for main: time 2016-08-29_09:12:00 on domain   1:   17.27722 elapsed seconds
Timing for main: time 2016-08-29_09:12:02 on domain   3:    8.26190 elapsed seconds
Timing for main: time 2016-08-29_09:12:05 on domain   3:    1.54174 elapsed seconds
Timing for main: time 2016-08-29_09:12:05 on domain   2:   16.26042 elapsed seconds
Timing for main: time 2016-08-29_09:12:07 on domain   3:    1.59789 elapsed seconds
Timing for main: time 2016-08-29_09:12:10 on domain   3:    1.54030 elapsed seconds
Timing for main: time 2016-08-29_09:12:10 on domain   2:    5.21092 elapsed seconds
Timing for main: time 2016-08-29_09:12:12 on domain   3:    1.65813 elapsed seconds
Timing for main: time 2016-08-29_09:12:15 on domain   3:    1.53997 elapsed seconds
Timing for main: time 2016-08-29_09:12:15 on domain   2:    5.22980 elapsed seconds
Timing for main: time 2016-08-29_09:12:15 on domain   1:   33.93792 elapsed seconds
Timing for main: time 2016-08-29_09:12:17 on domain   3:    1.59712 elapsed seconds
Timing for main: time 2016-08-29_09:12:20 on domain   3:    1.54009 elapsed seconds
Timing for main: time 2016-08-29_09:12:20 on domain   2:    5.15656 elapsed seconds
Timing for main: time 2016-08-29_09:12:22 on domain   3:    1.54661 elapsed seconds
Timing for main: time 2016-08-29_09:12:25 on domain   3:    1.53700 elapsed seconds
Timing for main: time 2016-08-29_09:12:25 on domain   2:    5.13676 elapsed seconds
Timing for main: time 2016-08-29_09:12:27 on domain   3:    1.58288 elapsed seconds
Timing for main: time 2016-08-29_09:12:30 on domain   3:    1.54015 elapsed seconds
Timing for main: time 2016-08-29_09:12:30 on domain   2:    5.14440 elapsed seconds
Timing for main: time 2016-08-29_09:12:30 on domain   1:   17.47782 elapsed seconds
Timing for main: time 2016-08-29_09:12:32 on domain   3:    1.54312 elapsed seconds
Timing for main: time 2016-08-29_09:12:35 on domain   3:    1.54254 elapsed seconds
Timing for main: time 2016-08-29_09:12:35 on domain   2:    5.08590 elapsed seconds
Timing for main: time 2016-08-29_09:12:37 on domain   3:    1.58365 elapsed seconds
Timing for main: time 2016-08-29_09:12:40 on domain   3:    1.54712 elapsed seconds
Timing for main: time 2016-08-29_09:12:40 on domain   2:    5.17016 elapsed seconds
Timing for main: time 2016-08-29_09:12:42 on domain   3:    1.54147 elapsed seconds
Timing for main: time 2016-08-29_09:12:45 on domain   3:    1.54331 elapsed seconds
Timing for main: time 2016-08-29_09:12:45 on domain   2:    5.13680 elapsed seconds
Timing for main: time 2016-08-29_09:12:45 on domain   1:   17.41312 elapsed seconds
Timing for main: time 2016-08-29_09:12:47 on domain   3:    1.54725 elapsed seconds
Timing for main: time 2016-08-29_09:12:50 on domain   3:    1.53901 elapsed seconds
Timing for main: time 2016-08-29_09:12:50 on domain   2:    5.09002 elapsed seconds
Timing for main: time 2016-08-29_09:12:52 on domain   3:    1.54302 elapsed seconds
Timing for main: time 2016-08-29_09:12:55 on domain   3:    1.54162 elapsed seconds
Timing for main: time 2016-08-29_09:12:55 on domain   2:    5.11784 elapsed seconds
Timing for main: time 2016-08-29_09:12:57 on domain   3:    1.55150 elapsed seconds
Timing for main: time 2016-08-29_09:13:00 on domain   3:    1.54702 elapsed seconds
Timing for main: time 2016-08-29_09:13:00 on domain   2:    5.15135 elapsed seconds
Timing for main: time 2016-08-29_09:13:00 on domain   1:   17.35423 elapsed seconds
Timing for main: time 2016-08-29_09:13:02 on domain   3:    1.52692 elapsed seconds
Timing for main: time 2016-08-29_09:13:05 on domain   3:    1.53848 elapsed seconds
Timing for main: time 2016-08-29_09:13:05 on domain   2:    5.12356 elapsed seconds
Timing for main: time 2016-08-29_09:13:07 on domain   3:    1.57891 elapsed seconds
Timing for main: time 2016-08-29_09:13:10 on domain   3:    1.54130 elapsed seconds
Timing for main: time 2016-08-29_09:13:10 on domain   2:    5.15781 elapsed seconds
Timing for main: time 2016-08-29_09:13:12 on domain   3:    1.58526 elapsed seconds
Timing for main: time 2016-08-29_09:13:15 on domain   3:    1.54117 elapsed seconds
Timing for main: time 2016-08-29_09:13:15 on domain   2:    5.18779 elapsed seconds
Timing for main: time 2016-08-29_09:13:15 on domain   1:   17.43991 elapsed seconds
Timing for main: time 2016-08-29_09:13:17 on domain   3:    1.54802 elapsed seconds
Timing for main: time 2016-08-29_09:13:20 on domain   3:    1.53432 elapsed seconds
Timing for main: time 2016-08-29_09:13:20 on domain   2:    5.10321 elapsed seconds
Timing for main: time 2016-08-29_09:13:22 on domain   3:    1.55227 elapsed seconds
Timing for main: time 2016-08-29_09:13:25 on domain   3:    1.53779 elapsed seconds
Timing for main: time 2016-08-29_09:13:25 on domain   2:    5.18980 elapsed seconds
Timing for main: time 2016-08-29_09:13:27 on domain   3:    1.54444 elapsed seconds
Timing for main: time 2016-08-29_09:13:30 on domain   3:    1.53842 elapsed seconds
Timing for main: time 2016-08-29_09:13:30 on domain   2:    5.17156 elapsed seconds
Timing for main: time 2016-08-29_09:13:30 on domain   1:   17.48250 elapsed seconds
Timing for main: time 2016-08-29_09:13:32 on domain   3:    1.53582 elapsed seconds
Timing for main: time 2016-08-29_09:13:35 on domain   3:    1.53803 elapsed seconds
Timing for main: time 2016-08-29_09:13:35 on domain   2:    5.07638 elapsed seconds
Timing for main: time 2016-08-29_09:13:37 on domain   3:    1.58230 elapsed seconds
Timing for main: time 2016-08-29_09:13:40 on domain   3:    1.53908 elapsed seconds
Timing for main: time 2016-08-29_09:13:40 on domain   2:    5.15114 elapsed seconds
Timing for main: time 2016-08-29_09:13:42 on domain   3:    1.53308 elapsed seconds
Timing for main: time 2016-08-29_09:13:45 on domain   3:    1.53777 elapsed seconds
Timing for main: time 2016-08-29_09:13:45 on domain   2:    5.08909 elapsed seconds
Timing for main: time 2016-08-29_09:13:45 on domain   1:   17.35959 elapsed seconds
Timing for main: time 2016-08-29_09:13:47 on domain   3:    1.53639 elapsed seconds
Timing for main: time 2016-08-29_09:13:50 on domain   3:    1.53498 elapsed seconds
Timing for main: time 2016-08-29_09:13:50 on domain   2:    5.08122 elapsed seconds
Timing for main: time 2016-08-29_09:13:52 on domain   3:    1.53969 elapsed seconds
Timing for main: time 2016-08-29_09:13:55 on domain   3:    1.53591 elapsed seconds
Timing for main: time 2016-08-29_09:13:55 on domain   2:    5.10271 elapsed seconds
Timing for main: time 2016-08-29_09:13:57 on domain   3:    1.54756 elapsed seconds
Timing for main: time 2016-08-29_09:14:00 on domain   3:    1.53522 elapsed seconds
Timing for main: time 2016-08-29_09:14:00 on domain   2:    5.17563 elapsed seconds
Timing for main: time 2016-08-29_09:14:00 on domain   1:   17.33126 elapsed seconds
Timing for main: time 2016-08-29_09:14:02 on domain   3:    1.53926 elapsed seconds
Timing for main: time 2016-08-29_09:14:05 on domain   3:    1.53757 elapsed seconds
Timing for main: time 2016-08-29_09:14:05 on domain   2:    5.09353 elapsed seconds
Timing for main: time 2016-08-29_09:14:07 on domain   3:    1.53606 elapsed seconds
Timing for main: time 2016-08-29_09:14:10 on domain   3:    1.53868 elapsed seconds
Timing for main: time 2016-08-29_09:14:10 on domain   2:    5.10763 elapsed seconds
Timing for main: time 2016-08-29_09:14:12 on domain   3:    1.55826 elapsed seconds
Timing for main: time 2016-08-29_09:14:15 on domain   3:    1.54843 elapsed seconds
Timing for main: time 2016-08-29_09:14:15 on domain   2:    5.12777 elapsed seconds
Timing for main: time 2016-08-29_09:14:15 on domain   1:   17.29449 elapsed seconds
Timing for main: time 2016-08-29_09:14:17 on domain   3:    1.58007 elapsed seconds
Timing for main: time 2016-08-29_09:14:20 on domain   3:    1.54029 elapsed seconds
Timing for main: time 2016-08-29_09:14:20 on domain   2:    5.15584 elapsed seconds
Timing for main: time 2016-08-29_09:14:22 on domain   3:    1.54516 elapsed seconds
Timing for main: time 2016-08-29_09:14:25 on domain   3:    1.59827 elapsed seconds
Timing for main: time 2016-08-29_09:14:25 on domain   2:    5.16210 elapsed seconds
Timing for main: time 2016-08-29_09:14:27 on domain   3:    1.53662 elapsed seconds
Timing for main: time 2016-08-29_09:14:30 on domain   3:    1.57983 elapsed seconds
Timing for main: time 2016-08-29_09:14:30 on domain   2:    5.16436 elapsed seconds
Timing for main: time 2016-08-29_09:14:30 on domain   1:   17.47330 elapsed seconds
Timing for main: time 2016-08-29_09:14:32 on domain   3:    1.54017 elapsed seconds
Timing for main: time 2016-08-29_09:14:35 on domain   3:    1.54219 elapsed seconds
Timing for main: time 2016-08-29_09:14:35 on domain   2:    5.08132 elapsed seconds
Timing for main: time 2016-08-29_09:14:37 on domain   3:    1.54420 elapsed seconds
Timing for main: time 2016-08-29_09:14:40 on domain   3:    1.54098 elapsed seconds
Timing for main: time 2016-08-29_09:14:40 on domain   2:    5.11648 elapsed seconds
Timing for main: time 2016-08-29_09:14:42 on domain   3:    1.52637 elapsed seconds
Timing for main: time 2016-08-29_09:14:45 on domain   3:    1.53978 elapsed seconds
Timing for main: time 2016-08-29_09:14:45 on domain   2:    5.11467 elapsed seconds
Timing for main: time 2016-08-29_09:14:45 on domain   1:   17.31229 elapsed seconds
Timing for main: time 2016-08-29_09:14:47 on domain   3:    1.54170 elapsed seconds
Timing for main: time 2016-08-29_09:14:50 on domain   3:    1.55116 elapsed seconds
Timing for main: time 2016-08-29_09:14:50 on domain   2:    5.09650 elapsed seconds
Timing for main: time 2016-08-29_09:14:52 on domain   3:    1.53051 elapsed seconds
Timing for main: time 2016-08-29_09:14:55 on domain   3:    1.57418 elapsed seconds
Timing for main: time 2016-08-29_09:14:55 on domain   2:    5.14172 elapsed seconds
Timing for main: time 2016-08-29_09:14:57 on domain   3:    1.53986 elapsed seconds
Timing for main: time 2016-08-29_09:15:00 on domain   3:    1.54138 elapsed seconds
Timing for main: time 2016-08-29_09:15:00 on domain   2:    5.10472 elapsed seconds
Timing for main: time 2016-08-29_09:15:00 on domain   1:   17.33950 elapsed seconds
Timing for main: time 2016-08-29_09:15:02 on domain   3:    8.29756 elapsed seconds
Timing for main: time 2016-08-29_09:15:05 on domain   3:    1.53538 elapsed seconds
Timing for main: time 2016-08-29_09:15:05 on domain   2:   16.27545 elapsed seconds
Timing for main: time 2016-08-29_09:15:07 on domain   3:    1.54169 elapsed seconds
Timing for main: time 2016-08-29_09:15:10 on domain   3:    1.53584 elapsed seconds
Timing for main: time 2016-08-29_09:15:10 on domain   2:    5.09567 elapsed seconds
Timing for main: time 2016-08-29_09:15:12 on domain   3:    1.54599 elapsed seconds
Timing for main: time 2016-08-29_09:15:15 on domain   3:    1.61377 elapsed seconds
Timing for main: time 2016-08-29_09:15:15 on domain   2:    5.17432 elapsed seconds
Timing for main: time 2016-08-29_09:15:15 on domain   1:   33.76363 elapsed seconds
Timing for main: time 2016-08-29_09:15:17 on domain   3:    1.55175 elapsed seconds
Timing for main: time 2016-08-29_09:15:20 on domain   3:    1.53695 elapsed seconds
Timing for main: time 2016-08-29_09:15:20 on domain   2:    5.08522 elapsed seconds
Timing for main: time 2016-08-29_09:15:22 on domain   3:    1.53361 elapsed seconds
Timing for main: time 2016-08-29_09:15:25 on domain   3:    1.53287 elapsed seconds
Timing for main: time 2016-08-29_09:15:25 on domain   2:    5.10045 elapsed seconds
Timing for main: time 2016-08-29_09:15:27 on domain   3:    1.54657 elapsed seconds
Timing for main: time 2016-08-29_09:15:30 on domain   3:    1.53751 elapsed seconds
Timing for main: time 2016-08-29_09:15:30 on domain   2:    5.10582 elapsed seconds
Timing for main: time 2016-08-29_09:15:30 on domain   1:   17.26470 elapsed seconds
Timing for main: time 2016-08-29_09:15:32 on domain   3:    1.53024 elapsed seconds
Timing for main: time 2016-08-29_09:15:35 on domain   3:    1.54012 elapsed seconds
Timing for main: time 2016-08-29_09:15:35 on domain   2:    5.08869 elapsed seconds
Timing for main: time 2016-08-29_09:15:37 on domain   3:    1.60535 elapsed seconds
Timing for main: time 2016-08-29_09:15:40 on domain   3:    1.53737 elapsed seconds
Timing for main: time 2016-08-29_09:15:40 on domain   2:    5.15838 elapsed seconds
Timing for main: time 2016-08-29_09:15:42 on domain   3:    1.53769 elapsed seconds
Timing for main: time 2016-08-29_09:15:45 on domain   3:    1.53481 elapsed seconds
Timing for main: time 2016-08-29_09:15:45 on domain   2:    5.11864 elapsed seconds
Timing for main: time 2016-08-29_09:15:45 on domain   1:   17.35547 elapsed seconds
Timing for main: time 2016-08-29_09:15:47 on domain   3:    1.53772 elapsed seconds
Timing for main: time 2016-08-29_09:15:50 on domain   3:    1.53622 elapsed seconds
Timing for main: time 2016-08-29_09:15:50 on domain   2:    5.07222 elapsed seconds
Timing for main: time 2016-08-29_09:15:52 on domain   3:    1.52921 elapsed seconds
Timing for main: time 2016-08-29_09:15:55 on domain   3:    1.53525 elapsed seconds
Timing for main: time 2016-08-29_09:15:55 on domain   2:    5.10161 elapsed seconds
Timing for main: time 2016-08-29_09:15:57 on domain   3:    1.54083 elapsed seconds
Timing for main: time 2016-08-29_09:16:00 on domain   3:    1.53773 elapsed seconds
Timing for main: time 2016-08-29_09:16:00 on domain   2:    5.09450 elapsed seconds
Timing for main: time 2016-08-29_09:16:00 on domain   1:   17.29545 elapsed seconds
Timing for main: time 2016-08-29_09:16:02 on domain   3:    1.53753 elapsed seconds
Timing for main: time 2016-08-29_09:16:05 on domain   3:    1.53499 elapsed seconds
Timing for main: time 2016-08-29_09:16:05 on domain   2:    5.07193 elapsed seconds
Timing for main: time 2016-08-29_09:16:07 on domain   3:    1.53470 elapsed seconds
Timing for main: time 2016-08-29_09:16:10 on domain   3:    1.53410 elapsed seconds
Timing for main: time 2016-08-29_09:16:10 on domain   2:    5.08237 elapsed seconds
Timing for main: time 2016-08-29_09:16:12 on domain   3:    1.55644 elapsed seconds
Timing for main: time 2016-08-29_09:16:15 on domain   3:    1.53826 elapsed seconds
Timing for main: time 2016-08-29_09:16:15 on domain   2:    5.13652 elapsed seconds
Timing for main: time 2016-08-29_09:16:15 on domain   1:   17.36767 elapsed seconds
Timing for main: time 2016-08-29_09:16:17 on domain   3:    1.59107 elapsed seconds
Timing for main: time 2016-08-29_09:16:20 on domain   3:    1.53812 elapsed seconds
Timing for main: time 2016-08-29_09:16:20 on domain   2:    5.13237 elapsed seconds
Timing for main: time 2016-08-29_09:16:22 on domain   3:    1.55704 elapsed seconds
Timing for main: time 2016-08-29_09:16:25 on domain   3:    1.53836 elapsed seconds
Timing for main: time 2016-08-29_09:16:25 on domain   2:    5.11843 elapsed seconds
Timing for main: time 2016-08-29_09:16:27 on domain   3:    1.54021 elapsed seconds
Timing for main: time 2016-08-29_09:16:30 on domain   3:    1.53697 elapsed seconds
Timing for main: time 2016-08-29_09:16:30 on domain   2:    5.13655 elapsed seconds
Timing for main: time 2016-08-29_09:16:30 on domain   1:   17.42861 elapsed seconds
Timing for main: time 2016-08-29_09:16:32 on domain   3:    1.53801 elapsed seconds
Timing for main: time 2016-08-29_09:16:35 on domain   3:    1.53325 elapsed seconds
Timing for main: time 2016-08-29_09:16:35 on domain   2:    5.07022 elapsed seconds
Timing for main: time 2016-08-29_09:16:37 on domain   3:    1.54765 elapsed seconds
Timing for main: time 2016-08-29_09:16:40 on domain   3:    1.56305 elapsed seconds
Timing for main: time 2016-08-29_09:16:40 on domain   2:    5.13810 elapsed seconds
Timing for main: time 2016-08-29_09:16:42 on domain   3:    1.56621 elapsed seconds
Timing for main: time 2016-08-29_09:16:45 on domain   3:    1.53227 elapsed seconds
Timing for main: time 2016-08-29_09:16:45 on domain   2:    5.11457 elapsed seconds
Timing for main: time 2016-08-29_09:16:45 on domain   1:   17.34271 elapsed seconds
Timing for main: time 2016-08-29_09:16:47 on domain   3:    1.53545 elapsed seconds
Timing for main: time 2016-08-29_09:16:50 on domain   3:    1.53804 elapsed seconds
Timing for main: time 2016-08-29_09:16:50 on domain   2:    5.07076 elapsed seconds
Timing for main: time 2016-08-29_09:16:52 on domain   3:    1.54231 elapsed seconds
Timing for main: time 2016-08-29_09:16:55 on domain   3:    1.53487 elapsed seconds
Timing for main: time 2016-08-29_09:16:55 on domain   2:    5.10478 elapsed seconds
Timing for main: time 2016-08-29_09:16:57 on domain   3:    1.57914 elapsed seconds
Timing for main: time 2016-08-29_09:17:00 on domain   3:    1.58648 elapsed seconds
Timing for main: time 2016-08-29_09:17:00 on domain   2:    5.18466 elapsed seconds
Timing for main: time 2016-08-29_09:17:00 on domain   1:   17.35390 elapsed seconds
Timing for main: time 2016-08-29_09:17:02 on domain   3:    1.53516 elapsed seconds
Timing for main: time 2016-08-29_09:17:05 on domain   3:    1.54441 elapsed seconds
Timing for main: time 2016-08-29_09:17:05 on domain   2:    5.08104 elapsed seconds
Timing for main: time 2016-08-29_09:17:07 on domain   3:    1.53939 elapsed seconds
Timing for main: time 2016-08-29_09:17:10 on domain   3:    1.54189 elapsed seconds
Timing for main: time 2016-08-29_09:17:10 on domain   2:    5.12828 elapsed seconds
Timing for main: time 2016-08-29_09:17:12 on domain   3:    1.54241 elapsed seconds
Timing for main: time 2016-08-29_09:17:15 on domain   3:    1.53875 elapsed seconds
Timing for main: time 2016-08-29_09:17:15 on domain   2:    5.18791 elapsed seconds
Timing for main: time 2016-08-29_09:17:15 on domain   1:   17.38651 elapsed seconds
Timing for main: time 2016-08-29_09:17:17 on domain   3:    1.53892 elapsed seconds
Timing for main: time 2016-08-29_09:17:20 on domain   3:    1.54135 elapsed seconds
Timing for main: time 2016-08-29_09:17:20 on domain   2:    5.08265 elapsed seconds
Timing for main: time 2016-08-29_09:17:22 on domain   3:    1.52966 elapsed seconds
Timing for main: time 2016-08-29_09:17:25 on domain   3:    1.53893 elapsed seconds
Timing for main: time 2016-08-29_09:17:25 on domain   2:    5.13135 elapsed seconds
Timing for main: time 2016-08-29_09:17:27 on domain   3:    1.52057 elapsed seconds
Timing for main: time 2016-08-29_09:17:30 on domain   3:    1.53986 elapsed seconds
Timing for main: time 2016-08-29_09:17:30 on domain   2:    5.14083 elapsed seconds
Timing for main: time 2016-08-29_09:17:30 on domain   1:   17.34905 elapsed seconds
Timing for main: time 2016-08-29_09:17:32 on domain   3:    1.54111 elapsed seconds
Timing for main: time 2016-08-29_09:17:35 on domain   3:    1.54000 elapsed seconds
Timing for main: time 2016-08-29_09:17:35 on domain   2:    5.08167 elapsed seconds
Timing for main: time 2016-08-29_09:17:37 on domain   3:    1.54640 elapsed seconds
Timing for main: time 2016-08-29_09:17:40 on domain   3:    1.53974 elapsed seconds
Timing for main: time 2016-08-29_09:17:40 on domain   2:    5.11017 elapsed seconds
Timing for main: time 2016-08-29_09:17:42 on domain   3:    1.54303 elapsed seconds
Timing for main: time 2016-08-29_09:17:45 on domain   3:    1.54302 elapsed seconds
Timing for main: time 2016-08-29_09:17:45 on domain   2:    5.15821 elapsed seconds
Timing for main: time 2016-08-29_09:17:45 on domain   1:   17.36622 elapsed seconds
Timing for main: time 2016-08-29_09:17:47 on domain   3:    1.54093 elapsed seconds
Timing for main: time 2016-08-29_09:17:50 on domain   3:    1.53834 elapsed seconds
Timing for main: time 2016-08-29_09:17:50 on domain   2:    5.07866 elapsed seconds
Timing for main: time 2016-08-29_09:17:52 on domain   3:    1.53749 elapsed seconds
Timing for main: time 2016-08-29_09:17:55 on domain   3:    1.53970 elapsed seconds
Timing for main: time 2016-08-29_09:17:55 on domain   2:    5.17160 elapsed seconds
Timing for main: time 2016-08-29_09:17:57 on domain   3:    1.53703 elapsed seconds
Timing for main: time 2016-08-29_09:18:00 on domain   3:    1.53802 elapsed seconds
Timing for main: time 2016-08-29_09:18:00 on domain   2:    5.09991 elapsed seconds
Timing for main: time 2016-08-29_09:18:00 on domain   1:   17.36099 elapsed seconds
Timing for main: time 2016-08-29_09:18:02 on domain   3:    8.26895 elapsed seconds
Timing for main: time 2016-08-29_09:18:05 on domain   3:    1.53346 elapsed seconds
Timing for main: time 2016-08-29_09:18:05 on domain   2:   16.27922 elapsed seconds
Timing for main: time 2016-08-29_09:18:07 on domain   3:    1.56927 elapsed seconds
Timing for main: time 2016-08-29_09:18:10 on domain   3:    1.53216 elapsed seconds
Timing for main: time 2016-08-29_09:18:10 on domain   2:    5.12452 elapsed seconds
Timing for main: time 2016-08-29_09:18:12 on domain   3:    1.53366 elapsed seconds
Timing for main: time 2016-08-29_09:18:15 on domain   3:    1.57832 elapsed seconds
Timing for main: time 2016-08-29_09:18:15 on domain   2:    5.16620 elapsed seconds
Timing for main: time 2016-08-29_09:18:15 on domain   1:   33.79090 elapsed seconds
Timing for main: time 2016-08-29_09:18:17 on domain   3:    1.53923 elapsed seconds
Timing for main: time 2016-08-29_09:18:20 on domain   3:    1.52508 elapsed seconds
Timing for main: time 2016-08-29_09:18:20 on domain   2:    5.05983 elapsed seconds
Timing for main: time 2016-08-29_09:18:22 on domain   3:    1.52865 elapsed seconds
Timing for main: time 2016-08-29_09:18:25 on domain   3:    1.52774 elapsed seconds
Timing for main: time 2016-08-29_09:18:25 on domain   2:    5.06515 elapsed seconds
Timing for main: time 2016-08-29_09:18:27 on domain   3:    1.60684 elapsed seconds
Timing for main: time 2016-08-29_09:18:30 on domain   3:    1.53021 elapsed seconds
Timing for main: time 2016-08-29_09:18:30 on domain   2:    5.14925 elapsed seconds
Timing for main: time 2016-08-29_09:18:30 on domain   1:   17.25435 elapsed seconds
Timing for main: time 2016-08-29_09:18:32 on domain   3:    1.53069 elapsed seconds
Timing for main: time 2016-08-29_09:18:35 on domain   3:    1.52795 elapsed seconds
Timing for main: time 2016-08-29_09:18:35 on domain   2:    5.04860 elapsed seconds
Timing for main: time 2016-08-29_09:18:37 on domain   3:    1.52981 elapsed seconds
Timing for main: time 2016-08-29_09:18:40 on domain   3:    1.52773 elapsed seconds
Timing for main: time 2016-08-29_09:18:40 on domain   2:    5.11120 elapsed seconds
Timing for main: time 2016-08-29_09:18:42 on domain   3:    1.53698 elapsed seconds
Timing for main: time 2016-08-29_09:18:45 on domain   3:    1.52777 elapsed seconds
Timing for main: time 2016-08-29_09:18:45 on domain   2:    5.11256 elapsed seconds
Timing for main: time 2016-08-29_09:18:45 on domain   1:   17.25385 elapsed seconds
Timing for main: time 2016-08-29_09:18:47 on domain   3:    1.52743 elapsed seconds
Timing for main: time 2016-08-29_09:18:50 on domain   3:    1.52779 elapsed seconds
Timing for main: time 2016-08-29_09:18:50 on domain   2:    5.07162 elapsed seconds
Timing for main: time 2016-08-29_09:18:52 on domain   3:    1.53247 elapsed seconds
Timing for main: time 2016-08-29_09:18:55 on domain   3:    1.52666 elapsed seconds
Timing for main: time 2016-08-29_09:18:55 on domain   2:    5.12815 elapsed seconds
Timing for main: time 2016-08-29_09:18:57 on domain   3:    1.51150 elapsed seconds
Timing for main: time 2016-08-29_09:19:00 on domain   3:    1.53074 elapsed seconds
Timing for main: time 2016-08-29_09:19:00 on domain   2:    5.09092 elapsed seconds
Timing for main: time 2016-08-29_09:19:00 on domain   1:   17.28774 elapsed seconds
Timing for main: time 2016-08-29_09:19:02 on domain   3:    1.51672 elapsed seconds
Timing for main: time 2016-08-29_09:19:05 on domain   3:    1.53116 elapsed seconds
Timing for main: time 2016-08-29_09:19:05 on domain   2:    5.10352 elapsed seconds
Timing for main: time 2016-08-29_09:19:07 on domain   3:    1.52865 elapsed seconds
Timing for main: time 2016-08-29_09:19:10 on domain   3:    1.52976 elapsed seconds
Timing for main: time 2016-08-29_09:19:10 on domain   2:    5.08258 elapsed seconds
Timing for main: time 2016-08-29_09:19:12 on domain   3:    1.52929 elapsed seconds
Timing for main: time 2016-08-29_09:19:15 on domain   3:    1.53121 elapsed seconds
Timing for main: time 2016-08-29_09:19:15 on domain   2:    5.08185 elapsed seconds
Timing for main: time 2016-08-29_09:19:15 on domain   1:   17.33092 elapsed seconds
Timing for main: time 2016-08-29_09:19:17 on domain   3:    1.59304 elapsed seconds
Timing for main: time 2016-08-29_09:19:20 on domain   3:    1.53320 elapsed seconds
Timing for main: time 2016-08-29_09:19:20 on domain   2:    5.12737 elapsed seconds
Timing for main: time 2016-08-29_09:19:22 on domain   3:    1.53145 elapsed seconds
Timing for main: time 2016-08-29_09:19:25 on domain   3:    1.53385 elapsed seconds
Timing for main: time 2016-08-29_09:19:25 on domain   2:    5.08696 elapsed seconds
Timing for main: time 2016-08-29_09:19:27 on domain   3:    1.53234 elapsed seconds
Timing for main: time 2016-08-29_09:19:30 on domain   3:    1.52756 elapsed seconds
Timing for main: time 2016-08-29_09:19:30 on domain   2:    5.08530 elapsed seconds
Timing for main: time 2016-08-29_09:19:30 on domain   1:   17.31940 elapsed seconds
Timing for main: time 2016-08-29_09:19:32 on domain   3:    1.55767 elapsed seconds
Timing for main: time 2016-08-29_09:19:35 on domain   3:    1.53304 elapsed seconds
Timing for main: time 2016-08-29_09:19:35 on domain   2:    5.09627 elapsed seconds
Timing for main: time 2016-08-29_09:19:37 on domain   3:    1.53483 elapsed seconds
Timing for main: time 2016-08-29_09:19:40 on domain   3:    1.53638 elapsed seconds
Timing for main: time 2016-08-29_09:19:40 on domain   2:    5.09735 elapsed seconds
Timing for main: time 2016-08-29_09:19:42 on domain   3:    1.53345 elapsed seconds
Timing for main: time 2016-08-29_09:19:45 on domain   3:    1.53563 elapsed seconds
Timing for main: time 2016-08-29_09:19:45 on domain   2:    5.13780 elapsed seconds
Timing for main: time 2016-08-29_09:19:45 on domain   1:   17.37951 elapsed seconds
Timing for main: time 2016-08-29_09:19:47 on domain   3:    1.53623 elapsed seconds
Timing for main: time 2016-08-29_09:19:50 on domain   3:    1.53415 elapsed seconds
Timing for main: time 2016-08-29_09:19:50 on domain   2:    5.07170 elapsed seconds
Timing for main: time 2016-08-29_09:19:52 on domain   3:    1.52362 elapsed seconds
Timing for main: time 2016-08-29_09:19:55 on domain   3:    1.53474 elapsed seconds
Timing for main: time 2016-08-29_09:19:55 on domain   2:    5.12206 elapsed seconds
Timing for main: time 2016-08-29_09:19:57 on domain   3:    1.51867 elapsed seconds
Timing for main: time 2016-08-29_09:20:00 on domain   3:    1.53920 elapsed seconds
Timing for main: time 2016-08-29_09:20:00 on domain   2:    5.16379 elapsed seconds
Timing for main: time 2016-08-29_09:20:00 on domain   1:   17.37828 elapsed seconds
Timing for main: time 2016-08-29_09:20:02 on domain   3:    1.51716 elapsed seconds
Timing for main: time 2016-08-29_09:20:05 on domain   3:    1.53813 elapsed seconds
Timing for main: time 2016-08-29_09:20:05 on domain   2:    5.08413 elapsed seconds
Timing for main: time 2016-08-29_09:20:07 on domain   3:    1.53974 elapsed seconds
Timing for main: time 2016-08-29_09:20:10 on domain   3:    1.53641 elapsed seconds
Timing for main: time 2016-08-29_09:20:10 on domain   2:    5.10198 elapsed seconds
Timing for main: time 2016-08-29_09:20:12 on domain   3:    1.54308 elapsed seconds
Timing for main: time 2016-08-29_09:20:15 on domain   3:    1.53882 elapsed seconds
Timing for main: time 2016-08-29_09:20:15 on domain   2:    5.10699 elapsed seconds
Timing for main: time 2016-08-29_09:20:15 on domain   1:   17.30349 elapsed seconds
Timing for main: time 2016-08-29_09:20:17 on domain   3:    1.58260 elapsed seconds
[...]
Timing for main: time 2016-08-29_09:24:07 on domain   3:    1.54332 elapsed seconds
Timing for main: time 2016-08-29_09:24:10 on domain   3:    1.53571 elapsed seconds
Timing for main: time 2016-08-29_09:24:10 on domain   2:    5.10857 elapsed seconds
Timing for main: time 2016-08-29_09:24:12 on domain   3:    1.54079 elapsed seconds
Timing for main: time 2016-08-29_09:24:15 on domain   3:    1.53352 elapsed seconds
Timing for main: time 2016-08-29_09:24:15 on domain   2:    5.11112 elapsed seconds
Timing for main: time 2016-08-29_09:24:15 on domain   1:   33.91839 elapsed seconds
Timing for main: time 2016-08-29_09:24:17 on domain   3:    1.52897 elapsed seconds
Timing for main: time 2016-08-29_09:24:20 on domain   3:    1.56707 elapsed seconds
Timing for main: time 2016-08-29_09:24:20 on domain   2:    5.10146 elapsed seconds
Timing for main: time 2016-08-29_09:24:22 on domain   3:    1.53142 elapsed seconds
Timing for main: time 2016-08-29_09:24:25 on domain   3:    1.52893 elapsed seconds
Timing for main: time 2016-08-29_09:24:25 on domain   2:    5.08717 elapsed seconds
Timing for main: time 2016-08-29_09:24:27 on domain   3:    1.53275 elapsed seconds
Timing for main: time 2016-08-29_09:24:30 on domain   3:    1.53451 elapsed seconds
Timing for main: time 2016-08-29_09:24:30 on domain   2:    5.09799 elapsed seconds
Timing for main: time 2016-08-29_09:24:30 on domain   1:   17.32051 elapsed seconds
Timing for main: time 2016-08-29_09:24:32 on domain   3:    1.53673 elapsed seconds
Timing for main: time 2016-08-29_09:24:35 on domain   3:    1.54807 elapsed seconds
Timing for main: time 2016-08-29_09:24:35 on domain   2:    5.09465 elapsed seconds
Timing for main: time 2016-08-29_09:24:37 on domain   3:    1.52812 elapsed seconds
Timing for main: time 2016-08-29_09:24:40 on domain   3:    1.53846 elapsed seconds
Timing for main: time 2016-08-29_09:24:40 on domain   2:    5.14090 elapsed seconds
Timing for main: time 2016-08-29_09:24:42 on domain   3:    1.57993 elapsed seconds
Timing for main: time 2016-08-29_09:24:45 on domain   3:    1.53570 elapsed seconds
Timing for main: time 2016-08-29_09:24:45 on domain   2:    5.15774 elapsed seconds
Timing for main: time 2016-08-29_09:24:45 on domain   1:   17.39210 elapsed seconds
Timing for main: time 2016-08-29_09:24:47 on domain   3:    1.53384 elapsed seconds
Timing for main: time 2016-08-29_09:24:50 on domain   3:    1.53426 elapsed seconds
Timing for main: time 2016-08-29_09:24:50 on domain   2:    5.08461 elapsed seconds
Timing for main: time 2016-08-29_09:24:52 on domain   3:    1.52922 elapsed seconds
Timing for main: time 2016-08-29_09:24:55 on domain   3:    1.57005 elapsed seconds
Timing for main: time 2016-08-29_09:24:55 on domain   2:    5.12935 elapsed seconds
Timing for main: time 2016-08-29_09:24:57 on domain   3:    1.51749 elapsed seconds
Timing for main: time 2016-08-29_09:25:00 on domain   3:    1.53437 elapsed seconds
Timing for main: time 2016-08-29_09:25:00 on domain   2:    5.12118 elapsed seconds
Timing for main: time 2016-08-29_09:25:00 on domain   1:   17.33432 elapsed seconds
Timing for main: time 2016-08-29_09:25:02 on domain   3:    1.53609 elapsed seconds
Timing for main: time 2016-08-29_09:25:05 on domain   3:    1.53487 elapsed seconds
Timing for main: time 2016-08-29_09:25:05 on domain   2:    5.08059 elapsed seconds
Timing for main: time 2016-08-29_09:25:07 on domain   3:    1.67374 elapsed seconds
Timing for main: time 2016-08-29_09:25:10 on domain   3:    1.53755 elapsed seconds
Timing for main: time 2016-08-29_09:25:10 on domain   2:    5.25811 elapsed seconds
Timing for main: time 2016-08-29_09:25:12 on domain   3:    1.52770 elapsed seconds
Timing for main: time 2016-08-29_09:25:15 on domain   3:    1.53785 elapsed seconds
Timing for main: time 2016-08-29_09:25:15 on domain   2:    5.10899 elapsed seconds
Timing for main: time 2016-08-29_09:25:15 on domain   1:   17.44122 elapsed seconds
Timing for main: time 2016-08-29_09:25:17 on domain   3:    1.53585 elapsed seconds
Timing for main: time 2016-08-29_09:25:20 on domain   3:    1.53462 elapsed seconds
Timing for main: time 2016-08-29_09:25:20 on domain   2:    5.08584 elapsed seconds
Timing for main: time 2016-08-29_09:25:22 on domain   3:    1.53790 elapsed seconds
Timing for main: time 2016-08-29_09:25:25 on domain   3:    1.53642 elapsed seconds
Timing for main: time 2016-08-29_09:25:25 on domain   2:    5.09653 elapsed seconds
Timing for main: time 2016-08-29_09:25:27 on domain   3:    1.53996 elapsed seconds
Timing for main: time 2016-08-29_09:25:30 on domain   3:    1.53300 elapsed seconds
Timing for main: time 2016-08-29_09:25:30 on domain   2:    5.10379 elapsed seconds
Timing for main: time 2016-08-29_09:25:30 on domain   1:   17.25254 elapsed seconds
Timing for main: time 2016-08-29_09:25:32 on domain   3:    1.53959 elapsed seconds
Timing for main: time 2016-08-29_09:25:35 on domain   3:    1.53659 elapsed seconds
Timing for main: time 2016-08-29_09:25:35 on domain   2:    5.08188 elapsed seconds
Timing for main: time 2016-08-29_09:25:37 on domain   3:    1.53181 elapsed seconds
Timing for main: time 2016-08-29_09:25:40 on domain   3:    1.53696 elapsed seconds
Timing for main: time 2016-08-29_09:25:40 on domain   2:    5.10483 elapsed seconds
Timing for main: time 2016-08-29_09:25:42 on domain   3:    1.53315 elapsed seconds
Timing for main: time 2016-08-29_09:25:45 on domain   3:    1.53424 elapsed seconds
Timing for main: time 2016-08-29_09:25:45 on domain   2:    5.09370 elapsed seconds
Timing for main: time 2016-08-29_09:25:45 on domain   1:   17.26586 elapsed seconds
Timing for main: time 2016-08-29_09:25:47 on domain   3:    1.57208 elapsed seconds
Timing for main: time 2016-08-29_09:25:50 on domain   3:    1.53482 elapsed seconds
Timing for main: time 2016-08-29_09:25:50 on domain   2:    5.12791 elapsed seconds
Timing for main: time 2016-08-29_09:25:52 on domain   3:    1.53250 elapsed seconds
Timing for main: time 2016-08-29_09:25:55 on domain   3:    1.53391 elapsed seconds
Timing for main: time 2016-08-29_09:25:55 on domain   2:    5.09180 elapsed seconds
Timing for main: time 2016-08-29_09:25:57 on domain   3:    1.51737 elapsed seconds
Timing for main: time 2016-08-29_09:26:00 on domain   3:    1.53577 elapsed seconds
Timing for main: time 2016-08-29_09:26:00 on domain   2:    5.14300 elapsed seconds
Timing for main: time 2016-08-29_09:26:00 on domain   1:   17.42644 elapsed seconds
Timing for main: time 2016-08-29_09:26:02 on domain   3:    1.59625 elapsed seconds
Timing for main: time 2016-08-29_09:26:05 on domain   3:    1.53167 elapsed seconds
Timing for main: time 2016-08-29_09:26:05 on domain   2:    5.13521 elapsed seconds
Timing for main: time 2016-08-29_09:26:07 on domain   3:    1.53112 elapsed seconds
Timing for main: time 2016-08-29_09:26:10 on domain   3:    1.53431 elapsed seconds
Timing for main: time 2016-08-29_09:26:10 on domain   2:    5.08803 elapsed seconds
Timing for main: time 2016-08-29_09:26:12 on domain   3:    1.52356 elapsed seconds
Timing for main: time 2016-08-29_09:26:15 on domain   3:    1.53852 elapsed seconds
Timing for main: time 2016-08-29_09:26:15 on domain   2:    5.09758 elapsed seconds
Timing for main: time 2016-08-29_09:26:15 on domain   1:   17.29750 elapsed seconds
Timing for main: time 2016-08-29_09:26:17 on domain   3:    1.56379 elapsed seconds
Timing for main: time 2016-08-29_09:26:20 on domain   3:    1.53346 elapsed seconds
Timing for main: time 2016-08-29_09:26:20 on domain   2:    5.11931 elapsed seconds
Timing for main: time 2016-08-29_09:26:22 on domain   3:    1.55156 elapsed seconds
Timing for main: time 2016-08-29_09:26:25 on domain   3:    1.53476 elapsed seconds
Timing for main: time 2016-08-29_09:26:25 on domain   2:    5.12541 elapsed seconds
Timing for main: time 2016-08-29_09:26:27 on domain   3:    1.53355 elapsed seconds
Timing for main: time 2016-08-29_09:26:30 on domain   3:    1.53430 elapsed seconds
Timing for main: time 2016-08-29_09:26:30 on domain   2:    5.12770 elapsed seconds
Timing for main: time 2016-08-29_09:26:30 on domain   1:   17.39744 elapsed seconds
Timing for main: time 2016-08-29_09:26:32 on domain   3:    1.53084 elapsed seconds
Timing for main: time 2016-08-29_09:26:35 on domain   3:    1.53895 elapsed seconds
Timing for main: time 2016-08-29_09:26:35 on domain   2:    5.07894 elapsed seconds
Timing for main: time 2016-08-29_09:26:37 on domain   3:    1.53803 elapsed seconds
Timing for main: time 2016-08-29_09:26:40 on domain   3:    1.53021 elapsed seconds
Timing for main: time 2016-08-29_09:26:40 on domain   2:    5.08936 elapsed seconds
Timing for main: time 2016-08-29_09:26:42 on domain   3:    1.54108 elapsed seconds
Timing for main: time 2016-08-29_09:26:45 on domain   3:    1.53390 elapsed seconds
Timing for main: time 2016-08-29_09:26:45 on domain   2:    5.17785 elapsed seconds
Timing for main: time 2016-08-29_09:26:45 on domain   1:   17.35790 elapsed seconds
Timing for main: time 2016-08-29_09:26:47 on domain   3:    1.53376 elapsed seconds
Timing for main: time 2016-08-29_09:26:50 on domain   3:    1.52931 elapsed seconds
Timing for main: time 2016-08-29_09:26:50 on domain   2:    5.09696 elapsed seconds
Timing for main: time 2016-08-29_09:26:52 on domain   3:    1.53762 elapsed seconds
Timing for main: time 2016-08-29_09:26:55 on domain   3:    1.53343 elapsed seconds
Timing for main: time 2016-08-29_09:26:55 on domain   2:    5.10349 elapsed seconds
Timing for main: time 2016-08-29_09:26:57 on domain   3:    1.52463 elapsed seconds
Timing for main: time 2016-08-29_09:27:00 on domain   3:    1.53169 elapsed seconds
Timing for main: time 2016-08-29_09:27:00 on domain   2:    5.08480 elapsed seconds
Timing for main: time 2016-08-29_09:27:00 on domain   1:   17.28217 elapsed seconds
Timing for main: time 2016-08-29_09:27:02 on domain   3:    8.29297 elapsed seconds
Timing for main: time 2016-08-29_09:27:05 on domain   3:    1.53131 elapsed seconds
Timing for main: time 2016-08-29_09:27:05 on domain   2:   16.35737 elapsed seconds
Timing for main: time 2016-08-29_09:27:07 on domain   3:    1.53324 elapsed seconds
Timing for main: time 2016-08-29_09:27:10 on domain   3:    1.53258 elapsed seconds
Timing for main: time 2016-08-29_09:27:10 on domain   2:    5.13658 elapsed seconds
Timing for main: time 2016-08-29_09:27:12 on domain   3:    1.53122 elapsed seconds
Timing for main: time 2016-08-29_09:27:15 on domain   3:    1.60946 elapsed seconds
Timing for main: time 2016-08-29_09:27:15 on domain   2:    5.16836 elapsed seconds
Timing for main: time 2016-08-29_09:27:15 on domain   1:   33.96212 elapsed seconds
Timing for main: time 2016-08-29_09:27:17 on domain   3:    1.52996 elapsed seconds
Timing for main: time 2016-08-29_09:27:20 on domain   3:    1.53194 elapsed seconds
Timing for main: time 2016-08-29_09:27:20 on domain   2:    5.07036 elapsed seconds
Timing for main: time 2016-08-29_09:27:22 on domain   3:    1.53444 elapsed seconds
Timing for main: time 2016-08-29_09:27:25 on domain   3:    1.53015 elapsed seconds
Timing for main: time 2016-08-29_09:27:25 on domain   2:    5.09808 elapsed seconds
Timing for main: time 2016-08-29_09:27:27 on domain   3:    1.53150 elapsed seconds
Timing for main: time 2016-08-29_09:27:30 on domain   3:    1.53671 elapsed seconds
Timing for main: time 2016-08-29_09:27:30 on domain   2:    5.09929 elapsed seconds
Timing for main: time 2016-08-29_09:27:30 on domain   1:   17.29419 elapsed seconds
Timing for main: time 2016-08-29_09:27:32 on domain   3:    1.60088 elapsed seconds
Timing for main: time 2016-08-29_09:27:35 on domain   3:    1.53492 elapsed seconds
Timing for main: time 2016-08-29_09:27:35 on domain   2:    5.14815 elapsed seconds
Timing for main: time 2016-08-29_09:27:37 on domain   3:    1.53890 elapsed seconds
Timing for main: time 2016-08-29_09:27:40 on domain   3:    1.53601 elapsed seconds
Timing for main: time 2016-08-29_09:27:40 on domain   2:    5.15622 elapsed seconds
Timing for main: time 2016-08-29_09:27:42 on domain   3:    1.59605 elapsed seconds
Timing for main: time 2016-08-29_09:27:45 on domain   3:    1.53444 elapsed seconds
Timing for main: time 2016-08-29_09:27:45 on domain   2:    5.16499 elapsed seconds
Timing for main: time 2016-08-29_09:27:45 on domain   1:   17.45591 elapsed seconds
Timing for main: time 2016-08-29_09:27:47 on domain   3:    1.53656 elapsed seconds
Timing for main: time 2016-08-29_09:27:50 on domain   3:    1.53343 elapsed seconds
Timing for main: time 2016-08-29_09:27:50 on domain   2:    5.07768 elapsed seconds
Timing for main: time 2016-08-29_09:27:52 on domain   3:    1.53677 elapsed seconds
Timing for main: time 2016-08-29_09:27:55 on domain   3:    1.53117 elapsed seconds
Timing for main: time 2016-08-29_09:27:55 on domain   2:    5.09851 elapsed seconds
Timing for main: time 2016-08-29_09:27:57 on domain   3:    1.53544 elapsed seconds
Timing for main: time 2016-08-29_09:28:00 on domain   3:    1.53631 elapsed seconds
Timing for main: time 2016-08-29_09:28:00 on domain   2:    5.09820 elapsed seconds
Timing for main: time 2016-08-29_09:28:00 on domain   1:   17.30170 elapsed seconds
Timing for main: time 2016-08-29_09:28:02 on domain   3:    1.53586 elapsed seconds
Timing for main: time 2016-08-29_09:28:05 on domain   3:    1.53675 elapsed seconds
Timing for main: time 2016-08-29_09:28:05 on domain   2:    5.07890 elapsed seconds
Timing for main: time 2016-08-29_09:28:07 on domain   3:    1.55379 elapsed seconds
Timing for main: time 2016-08-29_09:28:10 on domain   3:    1.53665 elapsed seconds
Timing for main: time 2016-08-29_09:28:10 on domain   2:    5.13602 elapsed seconds
Timing for main: time 2016-08-29_09:28:12 on domain   3:    1.53640 elapsed seconds
Timing for main: time 2016-08-29_09:28:15 on domain   3:    1.55546 elapsed seconds
Timing for main: time 2016-08-29_09:28:15 on domain   2:    5.12054 elapsed seconds
Timing for main: time 2016-08-29_09:28:15 on domain   1:   17.32519 elapsed seconds
Timing for main: time 2016-08-29_09:28:17 on domain   3:    1.53773 elapsed seconds
Timing for main: time 2016-08-29_09:28:20 on domain   3:    1.53663 elapsed seconds
Timing for main: time 2016-08-29_09:28:20 on domain   2:    5.14168 elapsed seconds
Timing for main: time 2016-08-29_09:28:22 on domain   3:    1.53201 elapsed seconds
Timing for main: time 2016-08-29_09:28:25 on domain   3:    1.54323 elapsed seconds
Timing for main: time 2016-08-29_09:28:25 on domain   2:    5.11169 elapsed seconds
Timing for main: time 2016-08-29_09:28:27 on domain   3:    1.53533 elapsed seconds
Timing for main: time 2016-08-29_09:28:30 on domain   3:    1.53476 elapsed seconds
Timing for main: time 2016-08-29_09:28:30 on domain   2:    5.21922 elapsed seconds
Timing for main: time 2016-08-29_09:28:30 on domain   1:   17.52569 elapsed seconds
Timing for main: time 2016-08-29_09:28:32 on domain   3:    1.53045 elapsed seconds
Timing for main: time 2016-08-29_09:28:35 on domain   3:    1.53664 elapsed seconds
Timing for main: time 2016-08-29_09:28:35 on domain   2:    5.06915 elapsed seconds
Timing for main: time 2016-08-29_09:28:37 on domain   3:    1.54017 elapsed seconds
Timing for main: time 2016-08-29_09:28:40 on domain   3:    1.53821 elapsed seconds
Timing for main: time 2016-08-29_09:28:40 on domain   2:    5.13608 elapsed seconds
Timing for main: time 2016-08-29_09:28:42 on domain   3:    1.54309 elapsed seconds
Timing for main: time 2016-08-29_09:28:45 on domain   3:    1.53608 elapsed seconds
Timing for main: time 2016-08-29_09:28:45 on domain   2:    5.10398 elapsed seconds
Timing for main: time 2016-08-29_09:28:45 on domain   1:   17.32370 elapsed seconds
Timing for main: time 2016-08-29_09:28:47 on domain   3:    1.54168 elapsed seconds
Timing for main: time 2016-08-29_09:28:50 on domain   3:    1.55222 elapsed seconds
Timing for main: time 2016-08-29_09:28:50 on domain   2:    5.12283 elapsed seconds
Timing for main: time 2016-08-29_09:28:52 on domain   3:    1.54048 elapsed seconds
Timing for main: time 2016-08-29_09:28:55 on domain   3:    1.57054 elapsed seconds
Timing for main: time 2016-08-29_09:28:55 on domain   2:    5.19115 elapsed seconds
Timing for main: time 2016-08-29_09:28:57 on domain   3:    1.51318 elapsed seconds
Timing for main: time 2016-08-29_09:29:00 on domain   3:    1.53462 elapsed seconds
Timing for main: time 2016-08-29_09:29:00 on domain   2:    5.20318 elapsed seconds
Timing for main: time 2016-08-29_09:29:00 on domain   1:   17.54297 elapsed seconds
Timing for main: time 2016-08-29_09:29:02 on domain   3:    1.55282 elapsed seconds
Timing for main: time 2016-08-29_09:29:05 on domain   3:    1.53574 elapsed seconds
Timing for main: time 2016-08-29_09:29:05 on domain   2:    5.13151 elapsed seconds
Timing for main: time 2016-08-29_09:29:07 on domain   3:    1.64804 elapsed seconds
Timing for main: time 2016-08-29_09:29:10 on domain   3:    1.54600 elapsed seconds
Timing for main: time 2016-08-29_09:29:10 on domain   2:    5.24808 elapsed seconds
Timing for main: time 2016-08-29_09:29:12 on domain   3:    1.56073 elapsed seconds
Timing for main: time 2016-08-29_09:29:15 on domain   3:    1.58071 elapsed seconds
Timing for main: time 2016-08-29_09:29:15 on domain   2:    5.16637 elapsed seconds
Timing for main: time 2016-08-29_09:29:15 on domain   1:   17.57728 elapsed seconds
Timing for main: time 2016-08-29_09:29:17 on domain   3:    1.54286 elapsed seconds
Timing for main: time 2016-08-29_09:29:20 on domain   3:    1.53941 elapsed seconds
Timing for main: time 2016-08-29_09:29:20 on domain   2:    5.09343 elapsed seconds
Timing for main: time 2016-08-29_09:29:22 on domain   3:    1.52999 elapsed seconds
Timing for main: time 2016-08-29_09:29:25 on domain   3:    1.53427 elapsed seconds
Timing for main: time 2016-08-29_09:29:25 on domain   2:    5.08901 elapsed seconds
Timing for main: time 2016-08-29_09:29:27 on domain   3:    1.59429 elapsed seconds
Timing for main: time 2016-08-29_09:29:30 on domain   3:    1.53661 elapsed seconds
Timing for main: time 2016-08-29_09:29:30 on domain   2:    5.15120 elapsed seconds
Timing for main: time 2016-08-29_09:29:30 on domain   1:   17.36948 elapsed seconds
Timing for main: time 2016-08-29_09:29:32 on domain   3:    1.52293 elapsed seconds
Timing for main: time 2016-08-29_09:29:35 on domain   3:    1.53012 elapsed seconds
Timing for main: time 2016-08-29_09:29:35 on domain   2:    5.06555 elapsed seconds
Timing for main: time 2016-08-29_09:29:37 on domain   3:    1.52869 elapsed seconds
Timing for main: time 2016-08-29_09:29:40 on domain   3:    1.53346 elapsed seconds
Timing for main: time 2016-08-29_09:29:40 on domain   2:    5.08405 elapsed seconds
Timing for main: time 2016-08-29_09:29:42 on domain   3:    1.54914 elapsed seconds
Timing for main: time 2016-08-29_09:29:45 on domain   3:    1.53799 elapsed seconds
Timing for main: time 2016-08-29_09:29:45 on domain   2:    5.10982 elapsed seconds
Timing for main: time 2016-08-29_09:29:45 on domain   1:   17.26400 elapsed seconds
Timing for main: time 2016-08-29_09:29:47 on domain   3:    1.54462 elapsed seconds
Timing for main: time 2016-08-29_09:29:50 on domain   3:    1.53590 elapsed seconds
Timing for main: time 2016-08-29_09:29:50 on domain   2:    5.13668 elapsed seconds
Timing for main: time 2016-08-29_09:29:52 on domain   3:    1.53057 elapsed seconds
Timing for main: time 2016-08-29_09:29:55 on domain   3:    1.55169 elapsed seconds
Timing for main: time 2016-08-29_09:29:55 on domain   2:    5.06998 elapsed seconds
Timing for main: time 2016-08-29_09:29:57 on domain   3:    1.54741 elapsed seconds
Timing for main: time 2016-08-29_09:30:00 on domain   3:    1.53569 elapsed seconds
Timing for main: time 2016-08-29_09:30:00 on domain   2:    5.11747 elapsed seconds
Timing for main: time 2016-08-29_09:30:00 on domain   1:   17.35679 elapsed seconds
wrf: SUCCESS COMPLETE WRF
